
*** ChampSim Multicore Out-of-Order Simulator ***

Warmup Instructions: 1000000
Simulation Instructions: 10000000
Number of CPUs: 1
LLC sets: 4096
LLC ways: 16
Off-chip DRAM Size: 4096 MB Channels: 1 Width: 64-bit Data Rate: 3200 MT/s

CPU 0 runs /home/aayush/Desktop/ChampSim-master/dpc3_traces/462.libquantum-1343B.champsimtrace.xz
CPU 0 Bimodal branch predictor

Warmup complete CPU 0 instructions: 1000002 cycles: 359431 (Simulation time: 0 hr 0 min 0 sec) 

Heartbeat CPU 0 instructions: 10000001 cycles: 16331879 heartbeat IPC: 0.6123 cumulative IPC: 0.56347 (Simulation time: 0 hr 0 min 8 sec) 
Finished CPU 0 instructions: 10000000 cycles: 17770030 cumulative IPC: 0.562745 (Simulation time: 0 hr 0 min 9 sec) 

ChampSim completed all CPUs

Region of Interest Statistics

CPU 0 cumulative IPC: 0.562745 instructions: 10000000 cycles: 17770030
L1D TOTAL     ACCESS:     826462  HIT:     600440  MISS:     226022
L1D LOAD      ACCESS:     798803  HIT:     572785  MISS:     226018
L1D RFO       ACCESS:      27659  HIT:      27655  MISS:          4
L1D PREFETCH  ACCESS:          0  HIT:          0  MISS:          0
L1D WRITEBACK ACCESS:          0  HIT:          0  MISS:          0
L1D PREFETCH  REQUESTED:          0  ISSUED:          0  USEFUL:          0  USELESS:          0
L1D AVERAGE MISS LATENCY: 138.144 cycles
L1I TOTAL     ACCESS:    2468893  HIT:    2468881  MISS:         12
L1I LOAD      ACCESS:    2468893  HIT:    2468881  MISS:         12
L1I RFO       ACCESS:          0  HIT:          0  MISS:          0
L1I PREFETCH  ACCESS:          0  HIT:          0  MISS:          0
L1I WRITEBACK ACCESS:          0  HIT:          0  MISS:          0
L1I PREFETCH  REQUESTED:          0  ISSUED:          0  USEFUL:          0  USELESS:          0
L1I AVERAGE MISS LATENCY: 156.917 cycles
L2C TOTAL     ACCESS:     253248  HIT:      27214  MISS:     226034
L2C LOAD      ACCESS:     226030  HIT:          0  MISS:     226030
L2C RFO       ACCESS:          4  HIT:          0  MISS:          4
L2C PREFETCH  ACCESS:          0  HIT:          0  MISS:          0
L2C WRITEBACK ACCESS:      27214  HIT:      27214  MISS:          0
L2C PREFETCH  REQUESTED:          0  ISSUED:          0  USEFUL:          0  USELESS:          0
L2C AVERAGE MISS LATENCY: 122.967 cycles
LLC TOTAL     ACCESS:     253982  HIT:      27948  MISS:     226034
LLC LOAD      ACCESS:     226030  HIT:          0  MISS:     226030
LLC RFO       ACCESS:          4  HIT:          0  MISS:          4
LLC PREFETCH  ACCESS:          0  HIT:          0  MISS:          0
LLC WRITEBACK ACCESS:      27948  HIT:      27948  MISS:          0
LLC PREFETCH  REQUESTED:          0  ISSUED:          0  USEFUL:          0  USELESS:          0
LLC AVERAGE MISS LATENCY: 92.4997 cycles
Major fault: 0 Minor fault: 3891

===========================================================
         PHASE 0: LLC WRITE DISTRIBUTION SUMMARY           
===========================================================
Total writes             : 27948
Max writes (single set)  : 22
Min writes (single set)  : 0
Average writes per set   : 6.82324
Hotspot severity         : 3.22427x
===========================================================

=== PER_SET_WRITE_COUNTS_START ===
0 4
2 6
3 13
6 4
8 7
9 11
10 1
11 1
13 6
14 8
15 4
16 7
17 8
19 4
20 9
21 6
23 3
24 1
25 4
26 7
27 8
29 1
30 4
31 6
32 5
33 8
34 6
35 4
37 6
38 13
41 4
43 7
44 11
45 1
46 1
48 6
49 8
50 4
51 7
52 8
54 4
55 9
56 6
58 3
59 1
60 4
61 7
62 8
64 1
65 5
66 6
67 5
68 8
69 6
70 4
71 1
72 6
73 12
76 3
77 1
78 7
79 11
81 1
82 1
83 6
84 8
85 5
86 6
87 8
89 5
90 9
91 5
93 3
95 5
96 7
97 7
99 1
100 5
101 6
102 5
103 8
104 6
105 4
106 1
107 6
108 12
111 3
112 1
113 7
114 11
116 1
117 1
118 6
119 8
120 5
121 6
122 8
124 5
125 9
126 5
128 3
129 4
130 5
131 7
132 11
134 1
135 9
136 6
137 5
138 8
139 6
140 4
141 5
142 6
143 12
146 7
147 1
148 7
149 15
151 1
152 1
153 10
154 8
155 5
156 6
157 8
159 9
160 9
161 5
163 3
164 4
165 5
166 7
167 11
169 1
170 9
171 6
172 5
173 8
174 6
175 4
176 5
177 6
178 12
181 7
182 1
183 7
184 15
186 1
187 1
188 10
189 8
190 5
191 6
192 8
194 9
195 9
196 5
198 3
199 4
200 5
201 7
202 11
204 1
205 9
206 6
207 5
208 8
209 6
210 4
211 5
212 6
213 12
216 7
217 1
218 7
219 15
221 1
222 1
223 10
224 8
225 5
226 6
227 8
229 9
230 9
231 5
233 3
234 4
235 5
236 7
237 11
239 1
240 9
241 6
242 5
243 8
244 6
245 4
246 5
247 6
248 12
251 7
252 1
253 7
254 15
256 1
257 4
258 9
259 8
260 5
261 5
262 8
263 3
264 9
265 5
266 5
269 7
270 5
271 6
272 8
274 4
275 9
276 5
277 8
278 5
279 5
280 4
281 8
282 5
283 9
286 4
287 4
288 6
289 12
291 1
292 4
293 9
294 8
295 5
296 5
297 8
298 3
299 9
300 5
301 5
304 7
305 5
306 6
307 8
309 4
310 9
311 5
312 8
313 5
314 5
315 4
316 8
317 5
318 9
321 5
322 4
323 6
324 9
326 1
327 4
328 10
329 4
330 5
331 5
332 4
333 3
334 10
335 5
336 1
339 8
340 5
341 6
342 5
344 4
345 10
346 5
347 4
348 5
349 5
351 9
352 5
353 5
356 5
357 4
358 6
359 9
361 1
362 4
363 10
364 4
365 5
366 5
367 4
368 3
369 10
370 5
371 1
374 8
375 5
376 6
377 5
379 4
380 10
381 5
382 4
383 5
384 6
385 1
386 11
387 6
388 6
389 1
391 8
392 4
393 5
394 12
396 1
397 5
398 11
399 5
400 5
401 6
402 6
403 4
404 11
405 7
406 1
408 1
409 10
410 5
411 7
412 6
414 4
415 12
416 6
417 4
418 6
419 6
420 1
421 11
422 6
423 6
424 1
426 8
427 4
428 5
429 12
431 1
432 5
433 11
434 5
435 5
436 6
437 6
438 4
439 11
440 7
441 1
443 1
444 10
445 5
446 7
447 6
449 8
450 10
451 9
452 8
453 9
454 5
455 4
456 11
457 6
458 5
459 2
460 3
461 6
462 5
463 6
464 12
465 3
466 4
467 6
468 9
469 8
470 9
471 6
472 5
473 8
474 10
475 6
476 1
477 1
478 4
479 9
480 6
481 9
482 7
484 8
485 10
486 9
487 8
488 9
489 5
490 4
491 11
492 6
493 5
494 2
495 3
496 6
497 5
498 6
499 12
500 3
501 4
502 6
503 9
504 8
505 9
506 6
507 5
508 8
509 10
510 6
511 1
512 1
513 6
514 9
515 7
516 7
517 7
519 10
520 10
521 6
522 8
523 9
524 1
525 6
526 12
527 6
528 1
529 3
530 5
531 6
532 6
533 8
534 8
535 3
536 4
537 8
538 10
539 4
540 9
541 6
542 1
543 11
544 10
545 2
546 2
547 1
548 6
549 9
550 7
551 7
552 7
554 10
555 10
556 6
557 8
558 9
559 1
560 6
561 12
562 6
563 1
564 3
565 5
566 6
567 6
568 8
569 8
570 3
571 4
572 8
573 10
574 4
575 9
576 5
577 5
578 11
579 11
580 5
581 2
582 1
583 10
584 10
585 7
586 6
587 8
589 14
590 10
591 6
592 8
593 9
594 4
595 6
596 12
597 10
598 1
599 3
600 5
601 10
602 7
603 7
604 8
605 4
606 4
607 12
608 10
609 4
610 9
611 5
612 5
613 11
614 11
615 5
616 2
617 1
618 10
619 10
620 7
621 6
622 8
624 14
625 10
626 6
627 8
628 9
629 4
630 6
631 12
632 10
633 1
634 3
635 5
636 10
637 7
638 7
639 8
640 4
641 4
642 13
643 10
644 4
645 9
646 5
647 5
648 12
649 11
650 5
651 2
652 1
653 11
654 10
655 7
656 7
657 8
659 15
660 10
661 6
662 8
663 9
664 4
665 7
666 12
667 10
668 1
669 3
670 6
671 10
672 7
673 8
674 8
675 4
676 4
677 13
678 10
679 4
680 9
681 5
682 5
683 12
684 11
685 5
686 2
687 1
688 11
689 10
690 7
691 7
692 8
694 15
695 10
696 6
697 8
698 9
699 4
700 7
701 12
702 10
703 1
704 3
705 7
706 10
707 7
708 9
709 8
710 4
711 6
712 12
713 10
714 4
715 9
716 5
717 7
718 11
719 11
720 5
721 2
722 3
723 10
724 10
725 9
726 6
727 8
729 16
730 10
731 6
732 8
733 9
734 4
735 8
736 12
737 10
738 1
739 3
740 7
741 10
742 7
743 9
744 8
745 4
746 6
747 12
748 10
749 4
750 9
751 5
752 7
753 11
754 11
755 5
756 2
757 3
758 10
759 10
760 9
761 6
762 8
764 16
765 10
766 6
767 8
768 9
769 6
770 8
771 13
772 12
773 3
774 2
775 9
776 10
777 7
778 8
779 8
780 6
781 6
782 12
783 10
784 5
785 11
786 7
787 7
788 11
789 12
790 7
791 2
792 2
793 12
794 10
795 8
796 6
797 8
798 2
799 16
800 10
801 7
802 10
803 9
804 6
805 8
806 13
807 12
808 3
809 2
810 9
811 10
812 7
813 8
814 8
815 6
816 6
817 12
818 10
819 5
820 11
821 7
822 7
823 11
824 12
825 7
826 2
827 2
828 12
829 10
830 8
831 6
832 8
833 3
834 16
835 10
836 8
837 10
838 9
839 7
840 8
841 13
842 12
843 3
844 2
845 10
846 10
847 7
848 8
849 8
850 7
851 6
852 12
853 11
854 5
855 11
856 7
857 8
858 11
859 12
860 7
861 2
862 2
863 13
864 10
865 8
866 6
867 8
868 3
869 16
870 10
871 8
872 10
873 9
874 7
875 8
876 13
877 12
878 3
879 2
880 10
881 10
882 7
883 8
884 8
885 7
886 6
887 12
888 11
889 5
890 11
891 7
892 8
893 11
894 12
895 7
896 2
897 2
898 13
899 9
900 4
901 6
902 7
903 3
904 16
905 6
906 7
907 10
908 5
909 7
910 8
911 13
912 7
913 3
914 2
915 10
916 10
917 6
918 4
919 8
920 6
921 6
922 12
923 6
924 5
925 11
926 3
927 8
928 11
929 7
930 7
931 2
932 2
933 13
934 9
935 4
936 6
937 7
938 3
939 16
940 6
941 7
942 10
943 5
944 7
945 8
946 13
947 7
948 3
949 2
950 10
951 10
952 6
953 4
954 8
955 6
956 6
957 12
958 6
959 5
960 11
961 7
962 8
963 11
964 11
965 7
966 2
967 6
968 13
969 9
970 4
971 6
972 7
973 7
974 16
975 6
976 7
977 10
978 9
979 7
980 8
981 17
982 7
983 3
984 2
985 14
986 10
987 6
988 4
989 8
990 6
991 10
992 12
993 6
994 5
995 11
996 7
997 8
998 11
999 11
1000 7
1001 2
1002 6
1003 13
1004 9
1005 4
1006 6
1007 7
1008 7
1009 16
1010 6
1011 7
1012 10
1013 9
1014 7
1015 8
1016 17
1017 7
1018 3
1019 2
1020 14
1021 10
1022 6
1023 4
1024 8
1025 12
1026 10
1027 12
1028 11
1029 5
1030 11
1031 13
1032 8
1033 10
1034 11
1035 7
1036 1
1037 12
1038 13
1039 9
1040 3
1041 6
1042 13
1043 7
1044 16
1045 12
1046 6
1047 10
1048 9
1049 13
1050 8
1051 16
1052 7
1053 3
1054 1
1055 20
1056 10
1057 5
1058 4
1059 8
1060 12
1061 10
1062 12
1063 11
1064 5
1065 11
1066 13
1067 8
1068 10
1069 11
1070 7
1071 1
1072 12
1073 13
1074 9
1075 3
1076 6
1077 13
1078 7
1079 16
1080 12
1081 6
1082 10
1083 9
1084 13
1085 8
1086 16
1087 7
1088 3
1089 2
1090 21
1091 10
1092 5
1093 4
1094 8
1095 13
1096 11
1097 11
1098 11
1099 5
1100 10
1101 15
1102 8
1103 10
1104 11
1105 7
1106 2
1107 13
1108 13
1109 10
1110 2
1111 6
1112 13
1113 9
1114 16
1115 11
1116 6
1117 10
1118 9
1119 14
1120 8
1121 16
1122 7
1123 3
1124 2
1125 21
1126 10
1127 5
1128 4
1129 8
1130 13
1131 11
1132 11
1133 11
1134 5
1135 10
1136 15
1137 8
1138 10
1139 11
1140 7
1141 2
1142 13
1143 13
1144 10
1145 2
1146 6
1147 13
1148 9
1149 16
1150 11
1151 6
1152 10
1153 8
1154 14
1155 8
1156 11
1157 7
1158 3
1159 2
1160 20
1161 6
1162 5
1163 4
1164 4
1165 13
1166 10
1167 11
1168 7
1169 5
1170 10
1171 14
1172 8
1173 10
1174 6
1175 7
1176 2
1177 12
1178 13
1179 6
1180 2
1181 6
1182 9
1183 8
1184 16
1185 7
1186 6
1187 10
1188 8
1189 14
1190 8
1191 11
1192 7
1193 3
1194 2
1195 20
1196 6
1197 5
1198 4
1199 4
1200 13
1201 10
1202 11
1203 7
1204 5
1205 10
1206 14
1207 8
1208 10
1209 6
1210 7
1211 2
1212 12
1213 13
1214 6
1215 2
1216 6
1217 9
1218 8
1219 16
1220 7
1221 6
1222 10
1223 8
1224 14
1225 8
1226 11
1227 7
1228 3
1229 2
1230 20
1231 6
1232 5
1233 4
1234 4
1235 13
1236 10
1237 11
1238 7
1239 5
1240 10
1241 14
1242 8
1243 10
1244 6
1245 7
1246 2
1247 12
1248 13
1249 6
1250 2
1251 6
1252 9
1253 8
1254 16
1255 7
1256 6
1257 10
1258 8
1259 14
1260 8
1261 11
1262 7
1263 3
1264 2
1265 20
1266 6
1267 5
1268 4
1269 4
1270 13
1271 10
1272 11
1273 7
1274 5
1275 10
1276 14
1277 8
1278 10
1279 6
1280 7
1281 5
1282 12
1283 13
1284 5
1285 2
1286 6
1287 12
1288 8
1289 12
1290 7
1291 6
1292 6
1293 11
1294 14
1295 8
1296 7
1297 7
1298 6
1299 2
1300 20
1301 9
1302 1
1303 4
1304 4
1305 16
1306 10
1307 7
1308 7
1309 5
1310 6
1311 17
1312 8
1313 6
1314 6
1315 7
1316 5
1317 12
1318 13
1319 5
1320 2
1321 6
1322 12
1323 8
1324 12
1325 7
1326 6
1327 6
1328 11
1329 14
1330 8
1331 7
1332 7
1333 6
1334 2
1335 20
1336 9
1337 1
1338 4
1339 4
1340 16
1341 10
1342 7
1343 7
1344 5
1345 11
1346 17
1347 8
1348 10
1349 6
1350 7
1351 10
1352 12
1353 12
1354 5
1355 2
1356 5
1357 17
1358 8
1359 12
1360 6
1361 6
1362 11
1363 11
1364 14
1365 13
1366 6
1367 7
1368 6
1369 7
1370 20
1371 8
1372 1
1373 4
1374 3
1375 21
1376 10
1377 6
1378 7
1379 5
1380 11
1381 17
1382 8
1383 10
1384 6
1385 7
1386 10
1387 12
1388 12
1389 5
1390 2
1391 5
1392 17
1393 8
1394 12
1395 6
1396 6
1397 11
1398 11
1399 14
1400 13
1401 6
1402 7
1403 6
1404 7
1405 20
1406 8
1407 1
1408 4
1409 4
1410 20
1411 9
1412 7
1413 7
1414 5
1415 10
1416 16
1417 7
1418 9
1419 6
1420 6
1421 9
1422 12
1423 12
1424 4
1425 2
1426 6
1427 16
1428 8
1429 12
1430 6
1431 6
1432 9
1433 11
1434 14
1435 11
1436 6
1437 6
1438 5
1439 6
1440 20
1441 7
1442 1
1443 4
1444 4
1445 20
1446 9
1447 7
1448 7
1449 5
1450 10
1451 16
1452 7
1453 9
1454 6
1455 6
1456 9
1457 12
1458 12
1459 4
1460 2
1461 6
1462 16
1463 8
1464 12
1465 6
1466 6
1467 9
1468 11
1469 14
1470 11
1471 6
1472 6
1473 5
1474 6
1475 17
1476 7
1477 1
1478 4
1479 1
1480 17
1481 6
1482 7
1483 7
1484 2
1485 7
1486 16
1487 7
1488 6
1489 6
1490 6
1491 9
1492 12
1493 9
1494 4
1495 2
1496 3
1497 13
1498 8
1499 9
1500 6
1501 3
1502 6
1503 8
1504 14
1505 8
1506 6
1507 6
1508 5
1509 6
1510 17
1511 7
1512 1
1513 4
1514 1
1515 17
1516 6
1517 7
1518 7
1519 2
1520 7
1521 16
1522 7
1523 6
1524 6
1525 6
1526 9
1527 12
1528 9
1529 4
1530 2
1531 3
1532 13
1533 8
1534 9
1535 6
1536 3
1537 11
1538 7
1539 15
1540 11
1541 6
1542 7
1543 9
1544 6
1545 16
1546 6
1547 1
1548 2
1549 6
1550 16
1551 7
1552 5
1553 7
1554 7
1555 7
1556 16
1557 12
1558 4
1559 7
1560 6
1561 13
1562 12
1563 8
1564 3
1565 2
1566 1
1567 17
1568 8
1569 8
1570 6
1571 3
1572 11
1573 7
1574 15
1575 11
1576 6
1577 7
1578 9
1579 6
1580 16
1581 6
1582 1
1583 2
1584 6
1585 16
1586 7
1587 5
1588 7
1589 7
1590 7
1591 16
1592 12
1593 4
1594 7
1595 6
1596 13
1597 12
1598 8
1599 3
1600 2
1601 1
1602 17
1603 9
1604 4
1605 6
1606 4
1607 11
1608 7
1609 11
1610 12
1611 6
1612 3
1613 9
1614 6
1615 16
1616 3
1617 1
1618 2
1619 6
1620 16
1621 8
1622 1
1623 7
1624 8
1625 7
1626 16
1627 9
1628 4
1629 7
1630 2
1631 13
1632 12
1633 5
1634 3
1635 2
1636 1
1637 17
1638 9
1639 4
1640 6
1641 4
1642 11
1643 7
1644 11
1645 12
1646 6
1647 3
1648 9
1649 6
1650 16
1651 3
1652 1
1653 2
1654 7
1655 16
1656 8
1657 1
1658 7
1659 8
1660 7
1661 16
1662 9
1663 4
1664 7
1665 2
1666 15
1667 12
1668 4
1669 3
1670 2
1671 1
1672 19
1673 8
1674 4
1675 6
1676 3
1677 13
1678 7
1679 11
1680 13
1681 6
1682 3
1683 11
1684 6
1685 16
1686 2
1687 1
1688 2
1689 8
1690 16
1691 7
1692 1
1693 7
1694 9
1695 7
1696 16
1697 10
1698 4
1699 7
1700 2
1701 15
1702 12
1703 4
1704 3
1705 2
1706 1
1707 19
1708 8
1709 4
1710 6
1711 3
1712 13
1713 7
1714 11
1715 13
1716 6
1717 3
1718 11
1719 6
1720 16
1721 2
1722 1
1723 2
1724 8
1725 16
1726 7
1727 1
1728 8
1729 9
1730 7
1731 17
1732 8
1733 4
1734 7
1735 2
1736 15
1737 11
1738 4
1739 3
1741 1
1742 20
1743 8
1744 2
1745 7
1746 3
1747 13
1748 7
1749 12
1750 11
1751 6
1752 3
1753 11
1754 6
1755 15
1756 2
1757 1
1759 8
1760 17
1761 5
1762 1
1763 8
1764 9
1765 7
1766 17
1767 8
1768 4
1769 7
1770 2
1771 15
1772 11
1773 4
1774 3
1776 1
1777 20
1778 8
1779 2
1780 7
1781 3
1782 13
1783 7
1784 12
1785 11
1786 6
1787 3
1788 11
1789 6
1790 15
1791 2
1792 1
1794 8
1795 14
1796 4
1797 1
1798 7
1799 7
1800 5
1801 13
1802 8
1803 4
1804 4
1806 15
1807 10
1808 1
1809 3
1811 1
1812 19
1813 6
1814 1
1815 6
1816 1
1817 11
1818 7
1819 8
1820 11
1821 4
1823 9
1824 6
1825 11
1826 2
1827 1
1829 8
1830 14
1831 4
1832 1
1833 7
1834 7
1835 5
1836 13
1837 8
1838 4
1839 4
1841 15
1842 10
1843 1
1844 3
1846 1
1847 19
1848 6
1849 1
1850 6
1851 1
1852 11
1853 7
1854 8
1855 11
1856 4
1858 9
1859 6
1860 10
1861 2
1862 1
1864 8
1865 13
1866 4
1867 1
1868 6
1869 7
1870 5
1871 13
1872 7
1873 4
1874 4
1876 15
1877 10
1879 3
1881 1
1882 19
1883 5
1884 1
1885 6
1887 11
1888 7
1889 7
1890 11
1891 4
1893 9
1894 6
1895 10
1896 2
1897 1
1899 8
1900 13
1901 4
1902 1
1903 6
1904 7
1905 5
1906 13
1907 7
1908 4
1909 4
1911 15
1912 10
1914 3
1916 1
1917 19
1918 5
1919 1
1920 6
1921 4
1922 11
1923 7
1924 11
1925 11
1926 4
1927 4
1928 9
1929 6
1930 10
1931 2
1932 1
1933 4
1934 8
1935 13
1936 4
1937 1
1938 10
1939 7
1940 5
1941 17
1942 7
1943 4
1944 4
1945 4
1946 15
1947 10
1948 1
1949 4
1950 1
1951 6
1952 20
1953 5
1954 1
1955 6
1956 4
1957 11
1958 7
1959 11
1960 11
1961 4
1962 4
1963 9
1964 6
1965 10
1966 2
1967 1
1968 4
1969 8
1970 13
1971 4
1972 1
1973 10
1974 7
1975 5
1976 17
1977 7
1978 4
1979 4
1980 4
1981 15
1982 10
1984 3
1986 5
1987 19
1988 1
1989 1
1990 6
1991 4
1992 11
1993 3
1994 11
1995 11
1997 4
1998 9
1999 6
2000 6
2001 2
2002 1
2003 4
2004 8
2005 13
2007 1
2008 10
2009 7
2010 5
2011 13
2012 7
2013 4
2015 4
2016 15
2017 6
2019 3
2021 5
2022 19
2023 1
2024 1
2025 6
2026 4
2027 11
2028 3
2029 11
2030 11
2032 4
2033 9
2034 6
2035 6
2036 2
2037 1
2038 4
2039 8
2040 13
2042 1
2043 10
2044 7
2045 5
2046 13
2047 7
2048 4
2049 1
2050 4
2051 14
2052 1
2054 3
2055 1
2056 5
2057 12
2058 1
2059 1
2061 5
2062 10
2063 3
2064 5
2065 10
2066 1
2067 4
2068 8
2069 7
2071 2
2072 1
2073 5
2074 7
2075 7
2077 1
2078 4
2079 7
2080 5
2081 7
2082 6
2083 4
2084 1
2085 4
2086 14
2087 1
2089 3
2090 1
2091 5
2092 12
2093 1
2094 1
2096 5
2097 10
2098 3
2099 5
2100 10
2101 1
2102 4
2103 8
2104 7
2106 2
2107 1
2108 5
2109 7
2110 7
2112 1
2113 5
2114 7
2115 5
2116 7
2117 6
2118 4
2119 1
2120 5
2121 13
2122 1
2124 2
2125 1
2126 6
2127 12
2129 1
2131 6
2132 10
2133 3
2134 5
2135 10
2136 1
2137 5
2138 8
2139 6
2141 2
2143 6
2144 7
2145 6
2147 1
2148 5
2149 7
2150 5
2151 7
2152 6
2153 4
2154 1
2155 5
2156 13
2157 1
2159 2
2160 1
2161 6
2162 12
2164 1
2166 6
2167 10
2168 3
2169 5
2170 10
2171 1
2172 5
2173 8
2174 6
2176 2
2177 4
2178 5
2179 7
2180 10
2182 1
2183 8
2184 7
2185 5
2186 6
2187 6
2188 4
2189 5
2190 4
2191 13
2192 1
2194 6
2195 1
2196 5
2197 16
2199 1
2201 9
2202 10
2203 3
2204 4
2205 10
2206 1
2207 8
2208 8
2209 6
2211 2
2212 4
2213 5
2214 7
2215 10
2217 1
2218 8
2219 7
2220 5
2221 6
2222 6
2223 4
2224 5
2225 4
2226 13
2227 1
2229 6
2230 1
2231 5
2232 16
2234 1
2236 9
2237 10
2238 3
2239 4
2240 10
2241 1
2242 8
2243 8
2244 6
2246 2
2247 4
2248 5
2249 7
2250 10
2252 1
2253 8
2254 7
2255 5
2256 6
2257 6
2258 4
2259 5
2260 4
2261 13
2262 1
2264 6
2265 1
2266 5
2267 16
2269 1
2271 9
2272 10
2273 3
2274 4
2275 10
2276 1
2277 8
2278 8
2279 6
2281 2
2282 4
2283 5
2284 7
2285 10
2287 1
2288 8
2289 7
2290 5
2291 6
2292 6
2293 4
2294 5
2295 4
2296 13
2297 1
2299 6
2300 1
2301 5
2302 16
2304 1
2305 4
2306 9
2307 10
2308 5
2309 4
2310 10
2311 5
2312 8
2313 6
2314 6
2317 8
2318 5
2319 7
2320 8
2322 5
2323 8
2324 7
2325 9
2326 4
2327 6
2328 4
2329 9
2330 4
2331 11
2332 1
2334 4
2335 5
2336 5
2337 14
2339 1
2340 4
2341 9
2342 10
2343 5
2344 4
2345 10
2346 5
2347 8
2348 6
2349 6
2352 8
2353 5
2354 7
2355 8
2357 5
2358 8
2359 7
2360 9
2361 4
2362 6
2363 4
2364 9
2365 4
2366 11
2367 1
2369 6
2370 5
2371 6
2372 12
2374 2
2375 6
2376 9
2377 6
2378 6
2379 4
2380 6
2381 7
2382 8
2383 6
2384 3
2386 2
2387 8
2388 5
2389 10
2390 4
2392 6
2393 10
2394 7
2395 6
2396 4
2397 6
2399 11
2400 4
2401 8
2402 1
2404 6
2405 5
2406 6
2407 12
2409 2
2410 6
2411 9
2412 6
2413 6
2414 4
2415 6
2416 7
2417 8
2418 6
2419 3
2421 2
2422 8
2423 5
2424 10
2425 4
2427 6
2428 10
2429 7
2430 6
2431 4
2432 6
2434 11
2435 4
2436 6
2437 1
2439 6
2440 5
2441 4
2442 12
2445 6
2446 9
2447 6
2448 4
2449 4
2450 6
2451 7
2452 8
2453 6
2454 1
2456 2
2457 8
2458 5
2459 8
2460 4
2462 4
2463 10
2464 7
2465 4
2466 4
2467 6
2469 11
2470 4
2471 6
2472 1
2474 6
2475 5
2476 4
2477 12
2480 6
2481 9
2482 6
2483 4
2484 4
2485 6
2486 6
2487 8
2488 6
2489 1
2491 2
2492 7
2493 5
2494 8
2495 4
2497 6
2498 9
2499 9
2500 6
2501 6
2502 6
2503 3
2504 9
2505 4
2506 6
2507 1
2508 2
2509 6
2510 4
2511 4
2512 13
2513 2
2514 3
2515 4
2516 9
2517 9
2518 5
2519 4
2520 6
2521 8
2522 8
2523 6
2524 1
2526 3
2527 8
2528 5
2529 9
2530 6
2532 6
2533 9
2534 9
2535 6
2536 6
2537 6
2538 3
2539 9
2540 4
2541 6
2542 1
2543 2
2544 6
2545 4
2546 4
2547 13
2548 2
2549 3
2550 4
2551 9
2552 9
2553 5
2554 4
2555 6
2556 8
2557 8
2558 6
2559 1
2561 5
2562 8
2563 5
2564 5
2565 6
2567 8
2568 9
2569 3
2570 6
2571 6
2573 5
2574 9
2575 4
2577 1
2578 4
2579 6
2580 4
2581 6
2582 7
2583 2
2584 3
2585 6
2586 9
2587 3
2588 5
2589 4
2591 10
2592 8
2594 1
2596 5
2597 8
2598 5
2599 5
2600 6
2602 8
2603 9
2604 3
2605 6
2606 6
2608 5
2609 9
2610 4
2612 1
2613 4
2614 6
2615 4
2616 6
2617 7
2618 2
2619 3
2620 6
2621 9
2622 3
2623 5
2624 4
2625 4
2626 9
2627 8
2628 4
2629 1
2631 9
2632 7
2633 5
2634 5
2635 6
2637 11
2638 9
2639 3
2640 5
2641 6
2642 4
2643 4
2644 9
2645 8
2647 1
2648 4
2649 9
2650 4
2651 6
2652 7
2653 2
2654 2
2655 10
2656 9
2657 2
2658 5
2659 4
2660 4
2661 9
2662 8
2663 4
2664 1
2666 9
2667 7
2668 5
2669 5
2670 6
2672 11
2673 9
2674 3
2675 5
2676 6
2677 4
2678 4
2679 9
2680 8
2682 1
2683 4
2684 9
2685 4
2686 6
2687 7
2688 2
2689 2
2690 10
2691 9
2692 2
2693 5
2694 4
2695 4
2696 9
2697 8
2698 4
2699 1
2701 9
2702 7
2703 5
2704 5
2705 6
2707 11
2708 9
2709 3
2710 5
2711 6
2712 4
2713 4
2714 9
2715 8
2717 1
2718 4
2719 9
2720 4
2721 6
2722 7
2723 2
2724 2
2725 10
2726 9
2727 2
2728 5
2729 4
2730 4
2731 9
2732 8
2733 4
2734 1
2736 9
2737 7
2738 5
2739 5
2740 6
2742 11
2743 9
2744 3
2745 5
2746 6
2747 4
2748 4
2749 9
2750 8
2753 6
2754 9
2755 3
2756 8
2757 7
2758 2
2759 4
2760 10
2761 8
2762 2
2763 5
2764 4
2765 6
2766 8
2767 8
2768 4
2770 2
2771 9
2772 7
2773 6
2774 5
2775 6
2777 13
2778 9
2779 2
2780 5
2781 6
2782 4
2783 6
2784 8
2785 8
2788 6
2789 9
2790 3
2791 8
2792 7
2793 2
2794 4
2795 10
2796 8
2797 2
2798 5
2799 4
2800 6
2801 8
2802 8
2803 4
2805 2
2806 9
2807 7
2808 6
2809 5
2810 6
2812 13
2813 9
2814 2
2815 5
2816 6
2817 6
2818 6
2819 10
2820 10
2821 2
2823 8
2824 9
2825 3
2826 8
2827 7
2828 4
2829 4
2830 10
2831 8
2832 4
2833 7
2834 6
2835 6
2836 8
2837 10
2838 6
2840 2
2841 11
2842 7
2843 6
2844 5
2845 6
2846 2
2847 13
2848 9
2849 4
2850 7
2851 6
2852 6
2853 6
2854 10
2855 10
2856 2
2858 8
2859 9
2860 3
2861 8
2862 7
2863 4
2864 4
2865 10
2866 8
2867 4
2868 7
2869 6
2870 6
2871 8
2872 10
2873 6
2875 2
2876 11
2877 7
2878 6
2879 5
2880 6
2881 4
2882 14
2883 9
2884 6
2885 7
2886 6
2887 9
2888 6
2889 10
2890 11
2891 2
2893 10
2894 10
2895 3
2896 8
2897 7
2898 6
2899 4
2900 11
2901 10
2902 4
2903 7
2904 6
2905 9
2906 8
2907 10
2908 7
2910 2
2911 14
2912 7
2913 6
2914 5
2915 6
2916 4
2917 14
2918 9
2919 6
2920 7
2921 6
2922 9
2923 6
2924 10
2925 11
2926 2
2928 10
2929 10
2930 3
2931 8
2932 7
2933 6
2934 4
2935 11
2936 10
2937 4
2938 7
2939 6
2940 9
2941 8
2942 10
2943 7
2945 2
2946 14
2947 7
2948 2
2949 5
2950 6
2951 4
2952 14
2953 5
2954 6
2955 7
2956 2
2957 9
2958 6
2959 10
2960 7
2961 2
2963 10
2964 10
2965 3
2966 4
2967 7
2968 6
2969 4
2970 11
2971 6
2972 4
2973 7
2974 2
2975 9
2976 8
2977 6
2978 7
2980 2
2981 14
2982 7
2983 2
2984 5
2985 6
2986 4
2987 14
2988 5
2989 6
2990 7
2991 2
2992 9
2993 6
2994 10
2995 7
2996 2
2998 10
2999 10
3000 3
3001 4
3002 7
3003 6
3004 4
3005 11
3006 6
3007 4
3008 7
3009 6
3010 10
3011 8
3012 10
3013 8
3015 6
3016 14
3017 8
3018 2
3019 5
3020 6
3021 8
3022 14
3023 6
3024 6
3025 7
3026 6
3027 9
3028 7
3029 14
3030 7
3031 3
3033 14
3034 11
3035 3
3036 4
3037 7
3038 6
3039 8
3040 12
3041 6
3042 4
3043 7
3044 6
3045 10
3046 8
3047 10
3048 8
3050 6
3051 14
3052 8
3053 2
3054 5
3055 6
3056 8
3057 14
3058 6
3059 6
3060 7
3061 6
3062 9
3063 7
3064 14
3065 7
3066 3
3068 14
3069 11
3070 3
3071 4
3072 7
3073 12
3074 8
3075 13
3076 12
3077 4
3078 8
3079 12
3080 10
3081 8
3082 11
3083 8
3085 12
3086 14
3087 8
3088 3
3089 5
3090 12
3091 8
3092 14
3093 13
3094 6
3095 7
3096 7
3097 15
3098 7
3099 15
3100 7
3101 3
3103 20
3104 11
3105 4
3106 4
3107 7
3108 12
3109 8
3110 13
3111 12
3112 4
3113 8
3114 12
3115 10
3116 8
3117 11
3118 8
3120 12
3121 14
3122 8
3123 3
3124 5
3125 12
3126 8
3127 14
3128 13
3129 6
3130 7
3131 7
3132 15
3133 7
3134 15
3135 7
3136 3
3137 2
3138 20
3139 11
3140 5
3141 4
3142 7
3143 14
3144 8
3145 12
3146 12
3147 4
3148 7
3149 14
3150 10
3151 8
3152 10
3153 8
3154 2
3155 12
3156 14
3157 10
3158 2
3159 5
3160 12
3161 10
3162 14
3163 12
3164 6
3165 7
3166 6
3167 17
3168 7
3169 14
3170 7
3171 3
3172 2
3173 20
3174 11
3175 5
3176 4
3177 7
3178 14
3179 8
3180 12
3181 12
3182 4
3183 7
3184 14
3185 10
3186 8
3187 10
3188 8
3189 2
3190 12
3191 14
3192 10
3193 2
3194 5
3195 12
3196 10
3197 14
3198 12
3199 6
3200 7
3201 6
3202 17
3203 8
3204 10
3205 8
3206 3
3207 1
3208 21
3209 8
3210 4
3211 5
3212 3
3213 13
3214 9
3215 13
3216 8
3217 4
3218 7
3219 13
3220 12
3221 8
3222 6
3223 9
3224 1
3225 13
3226 15
3227 5
3228 3
3229 5
3230 8
3231 9
3232 16
3233 8
3234 6
3235 7
3236 6
3237 17
3238 8
3239 10
3240 8
3241 3
3242 1
3243 21
3244 8
3245 4
3246 5
3247 3
3248 13
3249 9
3250 13
3251 8
3252 4
3253 7
3254 13
3255 12
3256 8
3257 6
3258 9
3259 1
3260 13
3261 15
3262 5
3263 3
3264 5
3265 8
3266 9
3267 15
3268 8
3269 6
3270 7
3271 6
3272 16
3273 8
3274 10
3275 7
3276 3
3277 1
3278 21
3279 7
3280 4
3281 5
3282 3
3283 13
3284 9
3285 12
3286 8
3287 4
3288 7
3289 13
3290 11
3291 8
3292 6
3293 8
3294 1
3295 13
3296 14
3297 5
3298 3
3299 5
3300 8
3301 9
3302 15
3303 8
3304 6
3305 7
3306 6
3307 16
3308 8
3309 10
3310 7
3311 3
3312 1
3313 21
3314 7
3315 4
3316 5
3317 3
3318 13
3319 9
3320 12
3321 8
3322 4
3323 7
3324 13
3325 11
3326 8
3327 6
3328 8
3329 4
3330 13
3331 14
3332 5
3333 3
3334 5
3335 11
3336 9
3337 12
3338 8
3339 6
3340 4
3341 9
3342 16
3343 8
3344 7
3345 7
3346 6
3347 1
3348 21
3349 10
3350 1
3351 5
3352 3
3353 16
3354 9
3355 9
3356 8
3357 4
3358 4
3359 16
3360 11
3361 5
3362 6
3363 8
3364 4
3365 13
3366 14
3367 5
3368 3
3369 5
3370 11
3371 9
3372 12
3373 8
3374 6
3375 4
3376 9
3377 16
3378 8
3379 7
3380 7
3381 6
3382 1
3383 21
3384 10
3385 1
3386 5
3387 3
3388 16
3389 9
3390 9
3391 8
3392 4
3393 8
3394 16
3395 11
3396 8
3397 6
3398 8
3399 8
3400 13
3401 13
3402 5
3403 3
3404 4
3405 15
3406 9
3407 12
3408 7
3409 6
3410 8
3411 9
3412 16
3413 12
3414 6
3415 7
3416 6
3417 5
3418 21
3419 9
3420 1
3421 5
3422 2
3423 20
3424 9
3425 8
3426 8
3427 4
3428 8
3429 16
3430 11
3431 8
3432 6
3433 8
3434 8
3435 13
3436 13
3437 5
3438 3
3439 4
3440 15
3441 9
3442 12
3443 7
3444 6
3445 8
3446 9
3447 16
3448 12
3449 6
3450 7
3451 6
3452 5
3453 21
3454 9
3455 1
3456 5
3457 3
3458 20
3459 9
3460 8
3461 8
3462 4
3463 10
3464 15
3465 10
3466 9
3467 6
3468 7
3469 9
3470 13
3471 13
3472 3
3473 3
3474 5
3475 15
3476 9
3477 13
3478 6
3479 6
3480 9
3481 9
3482 16
3483 12
3484 6
3485 7
3486 4
3487 7
3488 21
3489 7
3490 1
3491 5
3492 3
3493 20
3494 9
3495 8
3496 8
3497 4
3498 10
3499 15
3500 10
3501 9
3502 6
3503 7
3504 9
3505 13
3506 13
3507 3
3508 3
3509 5
3510 15
3511 9
3512 13
3513 6
3514 6
3515 9
3516 9
3517 16
3518 12
3519 6
3520 7
3521 6
3522 6
3523 19
3524 9
3525 1
3526 5
3527 2
3528 18
3529 7
3530 8
3531 8
3532 2
3533 8
3534 16
3535 10
3536 6
3537 6
3538 8
3539 9
3540 13
3541 12
3542 4
3543 3
3544 3
3545 14
3546 9
3547 11
3548 6
3549 4
3550 6
3551 9
3552 16
3553 9
3554 6
3555 7
3556 6
3557 6
3558 19
3559 9
3560 1
3561 5
3562 2
3563 18
3564 7
3565 8
3566 8
3567 2
3568 8
3569 16
3570 10
3571 6
3572 6
3573 8
3574 9
3575 13
3576 12
3577 4
3578 3
3579 3
3580 14
3581 9
3582 11
3583 6
3584 4
3585 13
3586 9
3587 16
3588 14
3589 6
3590 7
3591 13
3592 6
3593 17
3594 9
3595 1
3596 3
3597 9
3598 18
3599 7
3600 6
3601 8
3602 9
3603 8
3604 16
3605 17
3606 4
3607 6
3608 8
3609 16
3610 13
3611 10
3612 4
3613 3
3614 1
3615 21
3616 9
3617 9
3618 6
3619 4
3620 13
3621 9
3622 16
3623 14
3624 6
3625 7
3626 13
3627 6
3628 17
3629 9
3630 1
3631 3
3632 9
3633 18
3634 7
3635 6
3636 8
3637 9
3638 8
3639 16
3640 17
3641 4
3642 6
3643 8
3644 16
3645 13
3646 10
3647 4
3648 3
3649 1
3650 21
3651 9
3652 4
3653 6
3654 4
3655 13
3656 9
3657 11
3658 14
3659 6
3660 2
3661 13
3662 6
3663 17
3664 4
3665 1
3666 3
3667 9
3668 18
3669 7
3670 1
3671 8
3672 9
3673 8
3674 16
3675 12
3676 4
3677 6
3678 3
3679 16
3680 13
3681 5
3682 4
3683 3
3684 1
3685 21
3686 9
3687 4
3688 6
3689 4
3690 13
3691 9
3692 11
3693 14
3694 6
3695 2
3696 13
3697 6
3698 17
3699 4
3700 1
3701 3
3702 9
3703 18
3704 7
3705 1
3706 8
3707 9
3708 8
3709 16
3710 12
3711 4
3712 6
3713 3
3714 17
3715 13
3716 5
3717 4
3718 3
3719 1
3720 22
3721 9
3722 4
3723 6
3724 4
3725 14
3726 9
3727 11
3728 15
3729 6
3730 2
3731 13
3732 7
3733 17
3734 4
3735 1
3736 3
3737 9
3738 19
3739 7
3740 1
3741 8
3742 9
3743 9
3744 16
3745 12
3746 5
3747 6
3748 3
3749 17
3750 13
3751 5
3752 4
3753 3
3754 1
3755 22
3756 9
3757 4
3758 6
3759 4
3760 14
3761 9
3762 11
3763 15
3764 6
3765 2
3766 13
3767 7
3768 17
3769 4
3770 1
3771 3
3772 9
3773 19
3774 7
3775 1
3776 8
3777 8
3778 9
3779 16
3780 8
3781 5
3782 6
3783 4
3784 15
3785 10
3786 5
3787 4
3789 2
3790 20
3791 9
3792 1
3793 6
3794 5
3795 12
3796 9
3797 12
3798 10
3799 6
3800 2
3801 12
3802 7
3803 14
3804 4
3805 1
3807 8
3808 19
3809 4
3810 1
3811 8
3812 8
3813 9
3814 16
3815 8
3816 5
3817 6
3818 4
3819 15
3820 10
3821 5
3822 4
3824 2
3825 20
3826 9
3827 1
3828 6
3829 5
3830 12
3831 9
3832 12
3833 10
3834 6
3835 2
3836 12
3837 7
3838 14
3839 4
3840 1
3842 8
3843 17
3844 4
3845 1
3846 8
3847 6
3848 7
3849 14
3850 8
3851 5
3852 4
3853 2
3854 15
3855 10
3856 3
3857 4
3859 2
3860 20
3861 7
3862 1
3863 6
3864 3
3865 10
3866 9
3867 10
3868 10
3869 4
3871 10
3872 7
3873 12
3874 4
3875 1
3877 8
3878 17
3879 4
3880 1
3881 8
3882 6
3883 7
3884 14
3885 8
3886 5
3887 4
3888 2
3889 15
3890 10
3891 3
3892 4
3894 2
3895 20
3896 7
3897 1
3898 6
3899 3
3900 10
3901 9
3902 10
3903 10
3904 4
3906 10
3907 7
3908 10
3909 4
3910 1
3912 8
3913 15
3914 4
3915 1
3916 6
3917 6
3918 7
3919 14
3920 6
3921 5
3922 4
3923 2
3924 15
3925 10
3926 1
3927 4
3929 2
3930 20
3931 5
3932 1
3933 6
3934 1
3935 10
3936 9
3937 8
3938 10
3939 4
3941 10
3942 7
3943 10
3944 4
3945 1
3947 8
3948 15
3949 4
3950 1
3951 6
3952 6
3953 7
3954 14
3955 6
3956 5
3957 4
3958 2
3959 15
3960 10
3961 1
3962 4
3964 2
3965 20
3966 5
3967 1
3968 6
3969 5
3970 10
3971 9
3972 12
3973 10
3974 4
3975 4
3976 10
3977 7
3978 10
3979 4
3980 1
3981 4
3982 8
3983 15
3984 4
3985 1
3986 10
3987 6
3988 7
3989 18
3990 6
3991 5
3992 4
3993 6
3994 15
3995 10
3996 1
3997 4
3999 6
4000 20
4001 5
4002 1
4003 6
4004 5
4005 10
4006 9
4007 12
4008 10
4009 4
4010 4
4011 10
4012 7
4013 10
4014 4
4015 1
4016 4
4017 8
4018 15
4019 4
4020 1
4021 10
4022 6
4023 7
4024 18
4025 6
4026 5
4027 4
4028 6
4029 15
4030 10
4031 1
4032 4
4034 6
4035 18
4036 1
4037 1
4038 6
4039 5
4040 8
4041 5
4042 12
4043 8
4045 4
4046 9
4047 6
4048 6
4049 4
4050 1
4051 4
4052 7
4053 14
4055 1
4056 10
4057 5
4058 6
4059 14
4060 5
4061 4
4063 6
4064 13
4065 6
4066 1
4067 4
4069 6
4070 18
4071 1
4072 1
4073 6
4074 5
4075 8
4076 5
4077 12
4078 8
4080 4
4081 9
4082 6
4083 6
4084 4
4085 1
4086 4
4087 7
4088 14
4090 1
4091 10
4092 5
4093 6
4094 14
4095 5
=== PER_SET_WRITE_COUNTS_END ===

DRAM Statistics
 CHANNEL 0
 RQ ROW_BUFFER_HIT:     180494  ROW_BUFFER_MISS:      45540
 DBUS_CONGESTED:      44794
 WQ ROW_BUFFER_HIT:      21861  ROW_BUFFER_MISS:       2514  FULL:          0

 AVG_CONGESTED_CYCLE: 6

CPU 0 Branch Prediction Accuracy: 98.4704% MPKI: 2.7658 Average ROB Occupancy at Mispredict: 127.559

Branch types
NOT_BRANCH: 8191934 81.9193%
BRANCH_DIRECT_JUMP: 0 0%
BRANCH_INDIRECT: 1 1e-05%
BRANCH_CONDITIONAL: 1808132 18.0813%
BRANCH_DIRECT_CALL: 5 5e-05%
BRANCH_INDIRECT_CALL: 0 0%
BRANCH_RETURN: 5 5e-05%
BRANCH_OTHER: 0 0%

