
*** ChampSim Multicore Out-of-Order Simulator ***

Warmup Instructions: 1000000
Simulation Instructions: 10000000
Number of CPUs: 1
LLC sets: 4096
LLC ways: 16
Off-chip DRAM Size: 4096 MB Channels: 1 Width: 64-bit Data Rate: 3200 MT/s

CPU 0 runs /home/aayush/Desktop/ChampSim-master/dpc3_traces/605.mcf_s-665B.champsimtrace.xz
CPU 0 Bimodal branch predictor

Warmup complete CPU 0 instructions: 1000001 cycles: 411359 (Simulation time: 0 hr 0 min 1 sec) 

Heartbeat CPU 0 instructions: 10000000 cycles: 23924207 heartbeat IPC: 0.417987 cumulative IPC: 0.382769 (Simulation time: 0 hr 0 min 9 sec) 
Finished CPU 0 instructions: 10000000 cycles: 26117369 cumulative IPC: 0.382887 (Simulation time: 0 hr 0 min 10 sec) 

ChampSim completed all CPUs

Region of Interest Statistics

CPU 0 cumulative IPC: 0.382887 instructions: 10000000 cycles: 26117369
L1D TOTAL     ACCESS:    3680450  HIT:    3290277  MISS:     390173
L1D LOAD      ACCESS:    2607640  HIT:    2254308  MISS:     353332
L1D RFO       ACCESS:    1072810  HIT:    1035969  MISS:      36841
L1D PREFETCH  ACCESS:          0  HIT:          0  MISS:          0
L1D WRITEBACK ACCESS:          0  HIT:          0  MISS:          0
L1D PREFETCH  REQUESTED:          0  ISSUED:          0  USEFUL:          0  USELESS:          0
L1D AVERAGE MISS LATENCY: 73.4044 cycles
L1I TOTAL     ACCESS:    1917939  HIT:    1917939  MISS:          0
L1I LOAD      ACCESS:    1917939  HIT:    1917939  MISS:          0
L1I RFO       ACCESS:          0  HIT:          0  MISS:          0
L1I PREFETCH  ACCESS:          0  HIT:          0  MISS:          0
L1I WRITEBACK ACCESS:          0  HIT:          0  MISS:          0
L1I PREFETCH  REQUESTED:          0  ISSUED:          0  USEFUL:          0  USELESS:          0
L1I AVERAGE MISS LATENCY: -nan cycles
L2C TOTAL     ACCESS:     440874  HIT:     175016  MISS:     265858
L2C LOAD      ACCESS:     353330  HIT:     104367  MISS:     248963
L2C RFO       ACCESS:      36841  HIT:      19987  MISS:      16854
L2C PREFETCH  ACCESS:          0  HIT:          0  MISS:          0
L2C WRITEBACK ACCESS:      50703  HIT:      50662  MISS:         41
L2C PREFETCH  REQUESTED:          0  ISSUED:          0  USEFUL:          0  USELESS:          0
L2C AVERAGE MISS LATENCY: 85.2236 cycles
LLC TOTAL     ACCESS:     292358  HIT:     171403  MISS:     120955
LLC LOAD      ACCESS:     248963  HIT:     129404  MISS:     119559
LLC RFO       ACCESS:      16854  HIT:      16502  MISS:        352
LLC PREFETCH  ACCESS:          0  HIT:          0  MISS:          0
LLC WRITEBACK ACCESS:      26541  HIT:      25497  MISS:       1044
LLC PREFETCH  REQUESTED:          0  ISSUED:          0  USEFUL:          0  USELESS:          0
LLC AVERAGE MISS LATENCY: 120.203 cycles
Major fault: 0 Minor fault: 3007

===========================================================
         PHASE 0: LLC WRITE DISTRIBUTION SUMMARY           
===========================================================
Total writes             : 26541
Max writes (single set)  : 60
Min writes (single set)  : 0
Average writes per set   : 6.47974
Hotspot severity         : 9.25964x
===========================================================

=== PER_SET_WRITE_COUNTS_START ===
0 16
1 20
2 22
3 23
4 24
5 23
6 22
7 10
8 18
9 18
10 14
11 24
12 19
13 21
14 11
15 20
16 21
17 25
18 11
19 15
20 16
21 10
22 9
23 18
24 15
25 33
26 17
27 16
28 26
29 9
30 16
31 16
32 10
33 7
34 11
35 14
36 13
37 9
38 11
39 1
41 3
42 7
43 4
44 9
45 11
46 1
47 11
48 25
50 10
52 10
53 10
54 10
55 4
56 10
57 14
58 4
59 4
60 3
61 7
62 10
63 12
64 1
65 1
66 3
67 4
70 4
71 6
72 4
73 6
75 11
76 5
77 3
80 4
81 3
82 4
83 3
84 4
85 2
86 5
87 2
88 5
89 1
91 3
92 2
93 4
94 2
95 3
96 5
97 2
98 12
101 3
102 2
103 3
105 3
106 1
107 1
109 1
110 2
111 4
112 1
113 3
114 12
115 12
116 2
117 1
120 11
121 9
122 10
124 10
125 8
126 12
127 1
128 3
132 4
134 6
139 1
140 4
141 3
142 4
143 2
145 3
146 1
147 3
148 4
149 3
150 4
151 11
153 4
154 11
156 1
157 3
158 4
159 7
160 3
161 4
163 2
164 10
166 4
167 4
169 11
170 3
171 5
173 3
174 2
175 4
176 4
178 5
179 5
181 1
182 2
183 4
184 4
185 1
186 4
187 4
190 1
191 1
192 4
194 2
195 3
199 4
200 4
202 1
203 4
207 1
208 3
211 4
213 1
215 1
216 4
219 4
222 1
223 1
224 3
226 2
227 3
229 11
232 3
233 4
235 1
236 4
237 3
238 2
240 1
241 5
242 4
243 6
244 4
247 3
248 1
249 2
250 4
251 9
252 3
253 11
254 1
256 1
257 1
259 4
260 5
261 7
262 1
265 1
268 7
269 9
271 1
272 1
276 5
277 4
278 2
281 2
284 4
286 10
287 3
288 2
290 1
292 2
293 2
296 3
299 1
300 3
301 2
305 2
306 4
307 5
308 5
309 4
316 4
317 11
318 2
322 2
324 1
325 3
326 1
327 1
333 4
334 3
336 2
337 11
341 4
342 10
348 1
349 6
350 2
357 4
360 7
368 10
370 2
372 1
373 1
376 6
380 1
381 2
382 4
383 10
389 2
390 8
391 1
396 2
397 4
398 2
399 1
405 3
407 5
413 1
414 4
415 4
422 8
428 1
429 12
430 4
432 4
438 1
440 4
441 12
445 11
447 1
448 3
449 4
450 5
451 10
454 2
455 1
457 4
465 4
466 5
467 1
473 4
474 2
475 4
476 11
477 2
481 3
488 5
489 4
492 4
494 1
498 4
501 1
503 4
505 1
507 1
508 4
514 7
516 4
519 1
520 1
521 3
525 3
529 5
532 3
535 4
537 1
538 4
539 1
541 4
542 4
543 11
545 1
547 3
549 4
550 6
551 6
554 10
555 1
557 2
564 1
565 4
568 4
571 4
572 6
573 5
575 15
577 5
582 1
585 4
588 2
589 4
593 3
597 1
600 2
604 5
605 12
606 4
609 1
610 11
614 1
615 4
618 5
619 4
623 1
624 2
626 1
627 4
631 5
632 4
635 7
640 10
641 1
642 1
643 4
644 4
645 1
647 1
655 2
656 3
659 3
660 4
663 1
664 1
666 1
670 21
673 4
679 4
681 10
683 2
685 4
686 4
687 1
688 1
689 4
693 2
694 12
695 5
697 1
698 5
705 9
706 5
710 3
711 4
714 4
715 6
721 1
722 6
723 11
724 1
730 5
731 1
734 8
738 3
739 4
740 1
743 2
746 4
752 4
754 4
755 2
756 1
757 1
762 4
763 4
765 4
771 3
772 2
778 4
779 7
781 1
782 2
784 2
789 2
790 3
791 1
793 2
794 1
795 3
796 1
797 4
799 10
804 5
805 4
812 5
813 4
817 1
818 4
819 1
820 2
821 4
828 4
829 4
830 1
832 1
834 1
836 12
837 2
838 3
840 1
845 3
846 2
848 1
853 4
854 1
857 1
860 3
862 2
864 1
866 3
868 1
869 4
870 5
871 1
872 1
877 2
878 4
880 1
885 5
886 3
888 2
893 4
894 3
896 1
897 1
898 4
899 4
900 1
902 1
903 4
904 1
905 2
909 2
911 1
912 1
917 6
919 4
920 1
921 10
924 4
926 4
929 11
930 3
931 2
934 4
935 3
938 3
939 3
940 2
943 3
944 12
945 4
947 12
948 2
949 1
954 4
956 6
957 1
961 4
962 8
963 13
967 1
968 1
969 1
971 3
973 4
975 11
977 2
980 3
981 4
982 4
986 1
988 2
989 12
990 5
992 3
997 3
998 4
999 3
1000 2
1001 2
1006 10
1008 4
1009 1
1010 11
1012 1
1013 2
1015 3
1016 4
1018 2
1019 2
1023 4
1024 4
1026 4
1029 12
1030 10
1031 2
1032 4
1035 1
1036 1
1037 2
1038 6
1039 2
1040 3
1041 6
1043 1
1044 2
1048 3
1049 2
1050 2
1051 1
1054 1
1057 5
1058 1
1059 1
1060 1
1061 3
1062 3
1064 4
1065 9
1066 3
1067 1
1073 3
1074 4
1075 2
1078 2
1079 1
1081 7
1083 4
1086 2
1087 10
1088 4
1089 3
1090 3
1091 1
1092 1
1098 4
1099 4
1100 1
1101 3
1106 4
1107 5
1115 4
1117 1
1119 4
1122 1
1123 4
1125 1
1130 4
1131 5
1133 1
1136 10
1137 11
1139 3
1141 5
1142 1
1147 3
1149 3
1155 7
1157 4
1163 5
1165 4
1169 2
1170 1
1171 4
1173 4
1174 1
1176 1
1178 4
1179 4
1181 10
1182 4
1183 2
1186 2
1187 2
1188 4
1190 4
1192 13
1197 4
1199 2
1200 2
1201 4
1202 5
1204 2
1205 3
1208 2
1209 3
1213 3
1215 11
1217 1
1218 4
1221 5
1222 1
1223 3
1225 2
1226 2
1227 1
1228 3
1230 1
1231 9
1233 1
1234 3
1235 1
1239 5
1241 1
1242 3
1244 1
1245 10
1247 4
1248 1
1249 8
1250 11
1252 4
1253 1
1255 5
1258 2
1260 5
1261 11
1264 4
1265 1
1266 1
1267 1
1269 2
1270 1
1272 5
1273 2
1274 3
1275 2
1277 4
1279 4
1280 4
1283 1
1285 2
1286 2
1288 1
1289 1
1290 4
1291 2
1292 1
1293 3
1294 2
1297 1
1298 9
1299 1
1300 7
1302 3
1304 5
1305 2
1308 3
1310 3
1311 1
1313 10
1314 1
1315 4
1316 2
1317 14
1318 4
1319 1
1320 3
1325 3
1326 8
1329 11
1331 2
1333 1
1335 4
1337 4
1338 1
1339 9
1340 2
1341 1
1343 3
1344 10
1345 11
1346 11
1347 10
1348 8
1349 13
1350 11
1351 1
1355 12
1356 11
1357 11
1358 2
1359 8
1360 11
1361 10
1364 10
1365 9
1366 11
1367 14
1368 10
1369 11
1370 7
1371 8
1372 18
1373 3
1374 11
1375 10
1376 1
1377 11
1378 4
1379 9
1381 10
1382 12
1383 4
1384 8
1386 1
1387 12
1388 3
1390 1
1391 9
1392 4
1393 8
1394 9
1395 7
1396 11
1397 10
1398 9
1399 12
1400 2
1401 5
1402 5
1403 2
1404 11
1405 9
1406 10
1408 7
1409 7
1410 9
1411 1
1412 9
1413 8
1415 12
1416 10
1417 11
1418 9
1419 8
1420 9
1421 13
1422 12
1423 8
1424 6
1425 8
1426 11
1428 11
1429 9
1430 2
1431 1
1432 11
1433 11
1434 9
1436 11
1437 5
1438 9
1439 1
1440 9
1441 10
1442 1
1443 11
1444 8
1445 10
1446 11
1447 3
1448 13
1449 4
1450 10
1451 10
1452 9
1454 11
1455 12
1456 8
1457 1
1458 9
1459 13
1460 10
1461 11
1462 10
1463 2
1464 9
1465 9
1467 10
1468 1
1469 11
1470 9
1471 9
1472 10
1473 10
1474 13
1475 9
1476 9
1477 8
1478 10
1483 11
1484 16
1485 11
1486 2
1487 9
1488 10
1489 11
1491 5
1492 9
1493 9
1494 9
1495 4
1496 11
1497 1
1498 4
1501 2
1502 11
1505 4
1506 7
1507 10
1508 12
1509 9
1510 11
1511 20
1512 13
1513 10
1515 11
1516 10
1517 3
1518 10
1519 5
1520 11
1521 8
1522 11
1523 8
1524 10
1525 10
1526 11
1527 7
1528 10
1529 5
1530 2
1531 20
1532 10
1533 10
1534 12
1535 11
1536 13
1537 4
1539 12
1540 2
1541 8
1543 10
1544 4
1545 1
1546 9
1547 11
1548 3
1549 1
1550 9
1551 6
1554 10
1555 11
1556 10
1557 4
1558 11
1559 3
1561 6
1562 3
1564 1
1565 4
1566 12
1567 1
1568 11
1569 10
1570 3
1572 2
1573 9
1574 12
1575 20
1576 12
1577 3
1579 2
1580 11
1581 20
1582 10
1583 14
1584 11
1585 5
1586 9
1587 9
1588 11
1589 9
1590 6
1591 11
1592 1
1593 1
1594 6
1595 11
1596 11
1597 7
1598 10
1600 10
1601 9
1602 9
1603 10
1604 15
1607 9
1608 11
1609 8
1610 8
1611 9
1612 2
1613 9
1614 11
1615 11
1616 1
1617 1
1618 16
1619 17
1620 7
1621 4
1622 10
1623 10
1624 9
1625 11
1627 8
1628 10
1629 11
1630 7
1631 2
1633 3
1634 9
1636 9
1637 10
1638 1
1639 13
1640 8
1641 9
1643 10
1644 11
1645 10
1646 11
1647 9
1648 9
1649 11
1650 7
1652 1
1653 9
1654 2
1656 8
1657 13
1658 9
1659 10
1660 10
1661 11
1662 11
1663 12
1664 2
1665 6
1668 1
1672 1
1673 11
1674 5
1676 2
1678 4
1681 1
1682 4
1683 6
1684 2
1685 3
1686 11
1687 3
1690 3
1691 3
1695 6
1696 3
1697 1
1698 1
1699 5
1701 1
1702 3
1703 1
1704 1
1705 4
1706 4
1707 3
1708 3
1709 20
1711 3
1712 3
1713 1
1714 4
1715 2
1716 4
1722 1
1723 4
1724 5
1732 9
1733 4
1735 1
1739 1
1740 4
1741 3
1742 3
1744 2
1746 1
1747 5
1748 4
1749 1
1750 2
1751 1
1752 3
1754 11
1755 2
1756 2
1757 3
1758 2
1760 4
1761 4
1765 8
1766 1
1767 6
1769 5
1770 4
1771 1
1772 4
1773 4
1774 1
1775 6
1776 1
1778 5
1780 10
1782 5
1784 1
1785 5
1786 2
1787 11
1788 10
1789 1
1790 1
1791 3
1792 2
1794 1
1795 2
1796 7
1798 1
1799 1
1801 2
1803 12
1805 4
1806 2
1807 5
1808 1
1809 1
1810 4
1811 1
1812 1
1813 3
1814 4
1817 5
1818 3
1819 6
1820 1
1822 7
1823 2
1824 1
1826 3
1828 4
1830 2
1831 5
1832 4
1834 1
1835 1
1836 12
1837 2
1840 9
1841 1
1842 14
1843 3
1844 2
1846 3
1848 1
1850 7
1851 4
1854 2
1858 5
1859 3
1860 4
1863 2
1864 2
1866 6
1867 2
1868 4
1869 2
1870 2
1873 4
1874 3
1875 1
1876 1
1877 3
1878 3
1881 3
1883 2
1884 2
1885 1
1886 4
1888 2
1889 4
1890 4
1892 10
1893 2
1894 2
1895 3
1896 15
1901 3
1902 1
1904 6
1905 4
1906 2
1908 2
1909 5
1913 7
1914 10
1915 5
1916 1
1918 4
1920 8
1921 10
1922 9
1923 10
1924 12
1925 9
1926 11
1927 13
1928 12
1929 11
1930 30
1931 11
1932 11
1933 11
1934 10
1935 11
1936 11
1937 11
1938 18
1939 11
1940 10
1941 10
1942 11
1943 11
1944 12
1945 11
1946 15
1947 12
1948 11
1949 11
1950 13
1951 11
1952 11
1953 11
1954 32
1955 11
1956 11
1957 12
1958 12
1959 12
1960 12
1961 11
1962 16
1963 12
1964 12
1965 21
1966 13
1967 12
1968 12
1969 11
1970 18
1971 13
1972 19
1973 22
1974 11
1975 12
1976 11
1977 12
1978 12
1979 13
1980 11
1981 10
1982 11
1983 11
1984 8
1985 1
1989 8
1990 1
1992 4
1993 2
1995 1
1997 2
1998 4
2000 4
2005 2
2007 5
2008 5
2009 1
2012 3
2014 1
2015 4
2016 4
2017 5
2019 1
2020 2
2022 4
2023 1
2024 5
2026 3
2028 1
2030 3
2032 4
2033 11
2035 2
2038 14
2040 3
2041 1
2042 4
2043 1
2044 5
2047 1
2048 3
2050 4
2051 1
2056 3
2057 3
2058 4
2061 1
2062 3
2064 3
2066 10
2067 5
2069 2
2072 4
2073 2
2074 2
2075 5
2077 2
2079 3
2080 5
2081 1
2083 4
2085 1
2088 3
2090 10
2091 1
2092 7
2097 3
2098 12
2099 4
2100 5
2101 6
2102 2
2103 2
2104 2
2105 12
2106 7
2107 7
2108 7
2109 11
2110 7
2111 7
2112 11
2113 11
2114 7
2115 12
2116 12
2117 10
2118 11
2119 11
2120 10
2121 11
2122 11
2123 13
2124 12
2125 11
2126 11
2127 11
2128 12
2129 15
2130 11
2131 11
2132 10
2133 13
2134 10
2135 11
2136 10
2137 11
2138 23
2139 10
2140 6
2141 11
2142 10
2143 11
2144 10
2145 10
2146 12
2147 10
2148 10
2149 11
2150 11
2151 7
2152 11
2153 11
2154 13
2155 6
2156 9
2157 9
2158 8
2159 11
2160 11
2161 17
2162 12
2163 12
2164 10
2165 7
2166 1
2167 10
2168 7
2169 3
2170 8
2171 9
2172 11
2173 10
2174 6
2175 17
2176 12
2177 9
2178 4
2179 11
2182 2
2184 12
2185 16
2187 12
2188 6
2189 12
2190 5
2191 11
2192 10
2193 11
2194 12
2195 11
2196 10
2197 12
2198 11
2199 8
2200 1
2202 1
2203 6
2204 3
2207 2
2208 8
2209 10
2210 5
2212 6
2213 12
2214 4
2215 3
2216 6
2217 10
2218 11
2219 1
2220 8
2221 10
2225 4
2227 2
2228 1
2230 1
2233 4
2235 4
2236 20
2237 2
2238 2
2240 10
2241 11
2242 9
2243 9
2244 4
2245 9
2246 12
2247 7
2248 10
2249 7
2250 12
2251 9
2252 14
2253 16
2254 2
2255 9
2256 13
2257 11
2258 7
2259 12
2260 10
2261 4
2262 12
2263 13
2264 16
2265 17
2266 4
2267 7
2268 13
2270 8
2271 12
2272 14
2273 1
2274 12
2275 8
2276 17
2277 11
2278 4
2279 12
2280 12
2281 9
2282 12
2283 10
2284 12
2285 12
2289 9
2290 10
2291 9
2292 13
2293 4
2294 1
2295 13
2296 8
2297 5
2298 11
2300 6
2301 10
2302 10
2303 9
2304 1
2305 4
2306 2
2307 4
2308 1
2309 4
2310 1
2313 4
2316 1
2317 4
2321 4
2324 1
2325 4
2326 1
2329 2
2332 1
2333 4
2337 4
2340 3
2341 4
2344 3
2345 4
2349 4
2353 6
2355 4
2356 1
2357 2
2358 5
2361 13
2362 4
2363 3
2365 14
2366 4
2368 10
2369 12
2370 11
2371 1
2373 14
2374 11
2375 16
2376 4
2377 13
2378 7
2379 14
2380 12
2381 1
2382 8
2383 2
2384 15
2385 30
2386 14
2387 14
2389 11
2390 16
2391 16
2392 13
2393 16
2394 8
2395 1
2396 3
2397 6
2398 8
2399 10
2400 9
2404 5
2405 15
2406 14
2407 10
2408 12
2409 15
2410 4
2411 7
2412 24
2413 19
2414 6
2415 6
2416 6
2417 10
2418 10
2420 4
2421 12
2422 15
2423 13
2424 16
2425 7
2426 15
2427 12
2428 12
2429 12
2430 3
2432 15
2433 1
2434 14
2435 11
2436 15
2437 6
2438 10
2440 16
2441 20
2442 12
2443 12
2444 14
2445 13
2446 19
2447 4
2449 16
2450 12
2451 33
2452 6
2454 1
2455 7
2456 13
2457 5
2458 4
2459 21
2460 16
2462 17
2463 7
2464 17
2465 20
2466 1
2467 2
2468 13
2469 10
2470 12
2471 15
2472 17
2473 11
2474 1
2475 19
2476 13
2477 14
2478 19
2479 21
2480 2
2481 9
2482 11
2483 17
2484 18
2485 15
2486 10
2487 1
2488 20
2489 15
2490 20
2491 1
2492 16
2493 17
2494 15
2495 17
2496 17
2497 38
2498 17
2499 29
2500 18
2501 21
2502 35
2503 20
2504 35
2505 15
2506 13
2507 18
2508 39
2509 19
2510 13
2511 58
2512 43
2513 19
2514 10
2515 12
2516 16
2517 33
2518 35
2519 28
2520 36
2521 16
2522 36
2523 33
2524 35
2525 20
2526 36
2527 14
2528 32
2529 34
2530 25
2531 16
2532 40
2533 29
2534 30
2535 32
2536 38
2537 41
2538 52
2539 33
2540 24
2541 31
2542 40
2543 18
2544 39
2545 33
2546 37
2547 33
2548 39
2549 20
2550 19
2551 19
2552 19
2553 35
2554 36
2555 40
2556 27
2557 36
2558 41
2559 36
2560 19
2561 37
2562 4
2563 12
2564 15
2565 11
2566 4
2567 10
2568 8
2569 13
2570 5
2571 36
2572 8
2573 19
2576 7
2577 5
2578 9
2579 3
2581 1
2582 18
2583 15
2584 13
2585 1
2586 13
2588 10
2589 10
2590 14
2591 17
2592 17
2594 14
2595 16
2597 16
2598 16
2599 16
2600 4
2603 5
2604 18
2605 15
2606 19
2607 3
2608 16
2609 11
2610 19
2611 2
2612 20
2613 20
2614 7
2615 18
2616 19
2618 12
2619 18
2620 14
2621 9
2622 14
2623 12
2626 13
2627 18
2628 13
2629 18
2630 4
2631 17
2632 21
2633 9
2634 5
2635 1
2636 18
2637 15
2638 14
2639 14
2640 11
2641 14
2642 19
2643 12
2644 18
2646 15
2647 35
2648 15
2649 20
2650 21
2652 15
2653 17
2654 5
2655 18
2656 16
2658 3
2659 8
2660 14
2661 18
2662 1
2663 18
2664 12
2665 4
2666 1
2669 6
2670 19
2671 19
2674 4
2675 4
2676 15
2677 9
2678 18
2679 18
2680 10
2681 7
2682 3
2683 9
2684 16
2685 14
2687 20
2688 39
2689 9
2690 16
2691 17
2692 20
2693 15
2694 4
2695 38
2696 36
2697 40
2698 13
2699 13
2700 4
2701 60
2702 30
2703 30
2704 21
2705 18
2706 48
2707 46
2708 14
2709 17
2710 20
2711 32
2712 20
2713 19
2714 19
2715 3
2716 8
2717 16
2718 16
2719 11
2720 15
2721 37
2722 14
2723 32
2724 34
2725 12
2726 21
2727 13
2728 43
2729 25
2730 5
2731 18
2732 38
2733 17
2734 31
2735 18
2737 17
2738 30
2739 26
2740 27
2741 11
2742 38
2743 28
2744 32
2745 36
2746 9
2747 35
2748 35
2749 22
2750 18
2751 27
2753 5
2756 5
2759 4
2760 4
2761 5
2763 20
2764 5
2766 3
2767 18
2769 1
2771 6
2772 1
2775 1
2776 2
2778 4
2780 8
2781 4
2782 1
2783 1
2788 4
2789 4
2790 20
2791 2
2792 5
2793 2
2794 1
2795 3
2797 2
2798 4
2799 4
2800 1
2801 4
2803 2
2804 2
2807 8
2808 2
2810 5
2814 1
2815 6
2816 19
2817 1
2818 6
2819 4
2820 15
2821 8
2822 5
2823 1
2825 15
2826 3
2827 17
2828 1
2829 15
2830 16
2831 13
2834 4
2836 8
2837 4
2838 17
2839 17
2840 2
2841 1
2843 10
2844 8
2845 6
2846 3
2847 10
2848 8
2849 8
2850 4
2851 5
2852 1
2853 15
2854 10
2857 1
2858 8
2859 2
2861 4
2862 14
2863 1
2864 6
2865 16
2867 4
2868 20
2871 5
2873 19
2874 13
2875 5
2876 15
2877 7
2878 7
2879 3
2881 2
2882 6
2883 7
2884 18
2885 1
2886 2
2887 7
2888 5
2889 12
2890 4
2893 4
2894 14
2895 12
2896 12
2897 18
2898 3
2899 18
2900 22
2903 17
2904 15
2905 1
2906 1
2907 4
2908 1
2909 13
2910 14
2912 11
2913 15
2916 11
2917 10
2918 13
2920 13
2921 8
2924 8
2925 11
2926 1
2927 5
2928 17
2929 6
2931 5
2932 3
2933 18
2934 12
2937 2
2938 16
2939 4
2940 9
2941 7
2942 9
2943 4
2944 16
2945 10
2946 10
2947 11
2948 1
2949 5
2952 17
2953 11
2954 17
2955 2
2956 10
2957 10
2958 22
2959 14
2960 16
2961 19
2962 3
2963 3
2964 11
2965 15
2966 6
2967 7
2968 20
2969 1
2970 4
2971 15
2972 15
2974 17
2975 4
2976 2
2977 5
2978 1
2979 14
2980 19
2981 19
2982 13
2983 10
2984 3
2985 4
2986 1
2987 16
2988 18
2989 10
2990 17
2991 5
2995 2
2996 14
2997 8
2999 13
3000 12
3001 4
3002 21
3003 18
3004 17
3005 3
3006 2
3007 19
3008 32
3010 19
3011 36
3012 22
3013 14
3015 14
3016 9
3017 13
3018 2
3019 20
3022 13
3023 10
3024 16
3025 19
3026 9
3027 4
3028 19
3029 1
3030 17
3031 14
3035 11
3036 18
3037 10
3038 12
3039 11
3040 15
3041 4
3042 4
3044 18
3046 17
3049 12
3050 10
3051 14
3052 13
3053 1
3054 5
3055 4
3056 11
3057 19
3058 20
3059 15
3062 16
3063 18
3064 19
3065 9
3066 5
3067 8
3068 15
3069 16
3070 16
3071 3
3072 2
3073 2
3074 4
3079 19
3081 3
3082 1
3083 4
3089 4
3090 1
3091 4
3097 4
3098 1
3099 4
3105 3
3112 1
3113 2
3117 1
3121 3
3125 1
3126 1
3129 7
3131 1
3133 4
3134 4
3135 18
3136 11
3137 1
3138 4
3139 17
3140 37
3141 3
3142 12
3143 9
3144 14
3146 17
3147 18
3148 12
3149 13
3151 10
3152 15
3153 8
3155 8
3156 10
3157 1
3159 13
3160 2
3161 16
3162 9
3163 15
3164 2
3165 7
3166 2
3167 4
3168 9
3169 15
3170 15
3171 11
3172 11
3173 13
3174 11
3177 9
3178 15
3179 26
3180 14
3182 11
3183 15
3184 20
3185 15
3186 2
3187 16
3188 18
3189 16
3190 9
3193 4
3194 15
3195 13
3196 20
3197 12
3198 4
3199 11
3200 9
3202 8
3203 16
3206 1
3208 12
3209 7
3210 9
3211 7
3213 15
3215 19
3216 38
3217 19
3218 16
3219 22
3220 7
3221 18
3222 10
3223 17
3224 1
3226 12
3227 4
3228 13
3229 13
3230 16
3231 2
3232 13
3233 10
3234 20
3236 17
3237 6
3238 12
3239 18
3240 11
3241 4
3242 14
3243 15
3244 1
3245 3
3246 6
3247 4
3248 1
3250 16
3251 15
3252 6
3253 19
3254 17
3256 13
3257 4
3258 15
3259 15
3260 39
3262 14
3263 14
3264 19
3265 14
3266 10
3267 13
3268 2
3271 9
3272 17
3273 12
3274 13
3275 26
3276 17
3277 4
3278 2
3280 18
3281 1
3282 13
3283 9
3284 11
3285 3
3286 5
3287 12
3288 6
3289 14
3290 13
3291 4
3292 19
3293 16
3294 16
3295 4
3297 14
3298 18
3299 9
3300 16
3302 4
3303 8
3305 5
3306 11
3307 1
3308 17
3309 16
3310 9
3311 13
3312 18
3314 11
3315 13
3316 49
3318 1
3319 20
3320 1
3321 4
3322 4
3324 3
3325 7
3326 13
3327 4
3328 14
3330 9
3331 15
3332 8
3333 1
3334 9
3335 7
3336 15
3338 10
3339 17
3340 10
3341 14
3343 5
3344 18
3345 18
3346 12
3347 17
3348 11
3349 4
3351 10
3352 2
3353 2
3354 20
3355 18
3356 13
3357 10
3358 2
3359 15
3360 37
3361 4
3362 1
3363 5
3364 16
3365 21
3366 15
3367 19
3368 16
3369 1
3370 17
3371 14
3372 1
3374 1
3375 2
3376 14
3377 6
3378 15
3379 18
3381 3
3382 5
3384 12
3385 12
3386 20
3387 10
3388 12
3389 14
3390 8
3391 12
3392 7
3393 17
3395 18
3396 4
3397 17
3398 19
3399 11
3400 8
3401 4
3403 16
3404 16
3405 17
3406 7
3407 10
3408 19
3410 18
3411 3
3413 14
3414 17
3415 14
3416 10
3417 18
3418 16
3419 7
3420 17
3421 18
3423 16
3424 4
3425 9
3427 9
3428 6
3429 21
3431 13
3432 31
3433 16
3434 2
3436 16
3437 20
3438 6
3439 15
3440 18
3442 17
3443 7
3444 17
3445 15
3447 17
3448 3
3451 9
3452 12
3453 14
3454 4
3455 7
3456 8
3458 1
3463 4
3464 7
3466 4
3468 2
3469 3
3470 1
3471 4
3472 5
3473 4
3474 4
3475 4
3476 2
3477 3
3478 18
3481 4
3482 3
3483 7
3485 4
3489 3
3490 3
3491 2
3492 4
3494 4
3497 1
3499 5
3501 4
3502 20
3503 7
3504 1
3509 3
3510 2
3512 4
3513 2
3515 1
3516 6
3517 18
3519 3
3521 10
3522 14
3523 17
3524 14
3525 16
3526 12
3527 3
3528 19
3529 11
3530 16
3531 16
3532 15
3533 14
3534 14
3535 24
3536 23
3537 20
3538 12
3539 12
3541 18
3542 15
3543 6
3544 1
3546 17
3547 18
3548 10
3549 15
3550 17
3551 9
3552 10
3553 15
3555 15
3556 18
3557 18
3558 1
3559 18
3560 25
3561 21
3562 8
3563 17
3564 12
3565 11
3566 17
3567 10
3568 18
3569 15
3570 20
3571 3
3572 15
3573 2
3574 18
3575 7
3576 12
3577 22
3578 14
3579 58
3580 13
3581 17
3582 23
3583 18
3586 7
3587 15
3588 4
3589 3
3590 14
3591 14
3592 15
3593 5
3595 11
3598 18
3599 11
3600 10
3601 9
3602 18
3603 36
3605 1
3606 15
3607 1
3608 3
3609 4
3610 11
3612 4
3613 18
3614 13
3615 13
3616 16
3617 13
3618 12
3619 20
3620 10
3621 18
3622 20
3623 19
3624 15
3625 1
3628 18
3629 20
3630 18
3631 19
3632 16
3633 14
3634 3
3635 14
3636 15
3637 19
3638 14
3639 20
3640 17
3641 13
3642 12
3643 17
3644 18
3645 8
3646 11
3647 18
3648 10
3651 6
3652 14
3653 19
3654 2
3655 14
3656 20
3657 2
3658 13
3659 17
3660 20
3661 11
3662 15
3663 15
3664 18
3665 17
3666 19
3667 12
3668 19
3669 16
3670 14
3671 19
3672 13
3674 35
3675 19
3676 12
3677 20
3678 10
3680 15
3681 32
3682 16
3684 3
3685 18
3686 11
3687 24
3688 7
3689 16
3690 15
3691 23
3692 18
3693 14
3694 15
3695 18
3696 13
3697 5
3698 2
3699 6
3700 17
3701 4
3702 9
3703 21
3707 19
3708 16
3709 14
3710 20
3712 17
3713 14
3714 14
3715 17
3716 18
3717 21
3718 13
3719 1
3720 6
3721 22
3722 15
3723 15
3724 8
3725 20
3727 2
3728 19
3729 15
3730 19
3732 15
3733 3
3734 19
3736 1
3738 22
3739 5
3740 17
3741 18
3743 12
3744 19
3745 16
3746 7
3747 16
3748 19
3749 13
3750 19
3751 22
3752 18
3753 23
3754 9
3755 1
3756 14
3757 18
3758 12
3759 22
3760 15
3761 3
3763 2
3765 12
3766 19
3767 15
3768 15
3769 12
3770 15
3771 11
3772 31
3773 7
3774 15
3775 2
3776 13
3777 4
3778 15
3780 2
3781 11
3782 4
3783 10
3784 7
3785 8
3786 10
3787 3
3788 4
3789 1
3790 17
3791 17
3792 34
3793 11
3794 8
3795 11
3796 10
3797 14
3798 2
3799 17
3800 19
3801 22
3802 15
3803 20
3805 14
3806 13
3807 14
3809 15
3811 9
3812 11
3813 13
3814 18
3816 1
3817 16
3818 12
3819 16
3820 12
3822 10
3823 12
3824 5
3825 14
3826 18
3827 8
3828 12
3829 10
3830 10
3831 12
3832 15
3833 13
3834 16
3835 2
3836 19
3837 10
3838 18
3840 20
3844 5
3846 5
3847 6
3848 3
3851 3
3852 3
3853 2
3854 2
3855 4
3856 3
3857 1
3858 2
3859 1
3860 2
3863 3
3864 17
3866 5
3867 1
3869 2
3872 4
3874 1
3875 4
3876 1
3877 4
3878 1
3880 2
3883 4
3884 1
3885 5
3889 4
3892 3
3893 7
3897 1
3901 10
3902 1
3905 3
3907 1
3909 4
3910 7
3911 1
3912 4
3915 4
3916 1
3917 1
3919 5
3920 4
3924 2
3925 7
3927 20
3928 4
3930 4
3934 4
3935 4
3936 4
3938 3
3940 5
3942 5
3943 3
3945 4
3948 1
3949 4
3951 4
3952 4
3953 3
3955 6
3957 4
3958 7
3959 3
3961 4
3966 5
3967 3
3968 14
3969 3
3970 1
3971 20
3972 3
3973 9
3974 7
3975 10
3978 17
3979 14
3980 13
3981 16
3982 32
3983 16
3984 3
3985 17
3986 13
3987 7
3988 8
3989 15
3991 13
3992 38
3993 15
3994 14
3995 13
3996 8
3997 9
3998 13
3999 3
4000 6
4001 17
4002 11
4003 4
4004 11
4005 14
4006 15
4008 8
4009 9
4010 14
4011 16
4013 1
4015 1
4016 20
4017 10
4018 11
4019 18
4020 14
4021 10
4022 11
4023 16
4024 7
4025 4
4026 9
4027 14
4028 14
4029 9
4031 17
4032 12
4033 6
4034 19
4036 15
4037 12
4038 12
4039 13
4040 7
4041 13
4042 4
4044 3
4045 1
4046 1
4047 16
4048 6
4049 1
4050 10
4051 3
4052 16
4053 11
4054 18
4055 16
4056 7
4057 1
4058 19
4060 3
4061 11
4062 16
4063 14
4064 16
4065 18
4066 2
4067 2
4068 38
4070 3
4071 10
4072 18
4074 15
4075 16
4076 13
4077 8
4078 15
4081 19
4082 18
4083 17
4086 16
4087 14
4088 19
4089 17
4090 13
4092 17
4093 15
4094 15
=== PER_SET_WRITE_COUNTS_END ===

DRAM Statistics
 CHANNEL 0
 RQ ROW_BUFFER_HIT:      65221  ROW_BUFFER_MISS:      54690
 DBUS_CONGESTED:      20340
 WQ ROW_BUFFER_HIT:        353  ROW_BUFFER_MISS:        707  FULL:          0

 AVG_CONGESTED_CYCLE: 5

CPU 0 Branch Prediction Accuracy: 89.1088% MPKI: 27.2101 Average ROB Occupancy at Mispredict: 15.8707

Branch types
NOT_BRANCH: 7501276 75.0128%
BRANCH_DIRECT_JUMP: 263746 2.63746%
BRANCH_INDIRECT: 0 0%
BRANCH_CONDITIONAL: 1699800 16.998%
BRANCH_DIRECT_CALL: 252572 2.52572%
BRANCH_INDIRECT_CALL: 14836 0.14836%
BRANCH_RETURN: 267404 2.67404%
BRANCH_OTHER: 0 0%

