
*** ChampSim Multicore Out-of-Order Simulator ***

Warmup Instructions: 1000000
Simulation Instructions: 10000000
Number of CPUs: 1
LLC sets: 4096
LLC ways: 16
Off-chip DRAM Size: 4096 MB Channels: 1 Width: 64-bit Data Rate: 3200 MT/s

CPU 0 runs /home/aayush/Desktop/ChampSim-master/dpc3_traces/605.mcf_s-665B.champsimtrace.xz
CPU 0 Bimodal branch predictor

Warmup complete CPU 0 instructions: 1000001 cycles: 411359 (Simulation time: 0 hr 0 min 1 sec) 

Heartbeat CPU 0 instructions: 10000000 cycles: 23363084 heartbeat IPC: 0.428026 cumulative IPC: 0.392127 (Simulation time: 0 hr 0 min 9 sec) 
Finished CPU 0 instructions: 10000000 cycles: 25444105 cumulative IPC: 0.393018 (Simulation time: 0 hr 0 min 10 sec) 

ChampSim completed all CPUs

Region of Interest Statistics

CPU 0 cumulative IPC: 0.393018 instructions: 10000000 cycles: 25444105
L1D TOTAL     ACCESS:    3680424  HIT:    3290245  MISS:     390179
L1D LOAD      ACCESS:    2607593  HIT:    2254255  MISS:     353338
L1D RFO       ACCESS:    1072831  HIT:    1035990  MISS:      36841
L1D PREFETCH  ACCESS:          0  HIT:          0  MISS:          0
L1D WRITEBACK ACCESS:          0  HIT:          0  MISS:          0
L1D PREFETCH  REQUESTED:          0  ISSUED:          0  USEFUL:          0  USELESS:          0
L1D AVERAGE MISS LATENCY: 69.7667 cycles
L1I TOTAL     ACCESS:    1917864  HIT:    1917864  MISS:          0
L1I LOAD      ACCESS:    1917864  HIT:    1917864  MISS:          0
L1I RFO       ACCESS:          0  HIT:          0  MISS:          0
L1I PREFETCH  ACCESS:          0  HIT:          0  MISS:          0
L1I WRITEBACK ACCESS:          0  HIT:          0  MISS:          0
L1I PREFETCH  REQUESTED:          0  ISSUED:          0  USEFUL:          0  USELESS:          0
L1I AVERAGE MISS LATENCY: -nan cycles
L2C TOTAL     ACCESS:     440879  HIT:     175021  MISS:     265858
L2C LOAD      ACCESS:     353335  HIT:     104372  MISS:     248963
L2C RFO       ACCESS:      36840  HIT:      19986  MISS:      16854
L2C PREFETCH  ACCESS:          0  HIT:          0  MISS:          0
L2C WRITEBACK ACCESS:      50704  HIT:      50663  MISS:         41
L2C PREFETCH  REQUESTED:          0  ISSUED:          0  USEFUL:          0  USELESS:          0
L2C AVERAGE MISS LATENCY: 79.8788 cycles
LLC TOTAL     ACCESS:     292358  HIT:     177961  MISS:     114397
LLC LOAD      ACCESS:     248963  HIT:     134760  MISS:     114203
LLC RFO       ACCESS:      16854  HIT:      16705  MISS:        149
LLC PREFETCH  ACCESS:          0  HIT:          0  MISS:          0
LLC WRITEBACK ACCESS:      26541  HIT:      26496  MISS:         45
LLC PREFETCH  REQUESTED:          0  ISSUED:          0  USEFUL:          0  USELESS:          0
LLC AVERAGE MISS LATENCY: 114.632 cycles
Major fault: 0 Minor fault: 3007

===========================================================
         PHASE 0: LLC WRITE DISTRIBUTION SUMMARY           
===========================================================
Total writes             : 26541
Max writes (single set)  : 60
Min writes (single set)  : 0
Average writes per set   : 6.47974
Hotspot severity         : 9.25964x
===========================================================

=== PER_SET_WRITE_COUNTS_START ===
0 31
1 36
2 34
3 33
4 41
6 36
7 17
8 30
9 32
10 20
11 30
12 34
13 36
14 15
15 38
16 41
18 18
19 26
20 18
21 19
22 12
23 31
24 26
26 31
27 28
28 37
29 12
30 24
31 15
32 14
33 10
34 17
35 23
36 21
37 14
38 17
39 60
40 58
41 58
42 57
43 52
44 7
45 15
46 1
47 18
48 38
49 49
50 17
51 48
52 11
53 15
54 15
55 4
56 11
57 17
58 2
59 46
60 44
61 7
62 15
63 16
64 43
73 2
75 20
98 18
109 1
114 20
115 20
120 12
121 9
122 12
124 17
125 13
126 9
145 2
146 1
151 20
154 20
159 12
164 18
169 20
173 2
194 2
213 1
229 20
235 1
237 2
243 2
251 2
253 20
254 1
262 1
268 2
269 2
286 18
288 1
305 1
308 2
317 20
322 2
327 1
336 2
337 20
342 2
350 2
368 2
370 2
372 1
373 1
381 2
382 1
383 18
389 2
396 2
429 20
441 22
445 18
447 1
448 2
450 2
451 18
454 2
466 2
467 1
474 2
476 20
477 2
481 2
494 1
501 1
503 4
514 3
535 4
539 1
543 20
550 7
551 2
554 18
557 2
568 2
572 2
573 5
575 20
585 1
588 1
600 2
604 1
605 20
606 1
610 18
618 2
624 2
635 2
640 18
642 1
645 1
664 1
670 38
681 18
683 2
686 1
687 1
693 2
694 21
697 1
705 16
715 2
722 2
723 16
724 1
734 8
743 2
746 1
755 2
762 2
765 4
771 1
778 1
782 2
784 2
789 1
791 1
793 1
799 18
805 1
812 1
817 1
819 1
830 1
836 19
857 1
870 1
871 1
885 2
888 1
893 1
897 1
905 2
917 2
921 20
929 20
930 3
931 1
938 3
939 3
940 2
944 19
945 2
947 22
956 2
963 15
968 1
969 1
971 1
975 18
977 2
980 1
981 1
986 1
989 21
992 3
999 2
1000 2
1001 2
1006 2
1010 20
1012 1
1013 2
1018 1
1019 2
1026 2
1029 18
1030 18
1031 2
1036 1
1037 2
1038 2
1039 2
1041 3
1044 2
1050 2
1054 1
1058 1
1060 1
1062 2
1065 4
1073 1
1075 2
1078 2
1079 1
1081 4
1086 2
1087 20
1089 3
1092 1
1100 1
1101 2
1131 1
1136 18
1137 20
1141 2
1157 1
1169 2
1170 1
1176 1
1181 18
1183 1
1186 2
1187 2
1192 22
1201 4
1202 5
1204 2
1215 20
1218 2
1221 1
1222 1
1225 1
1227 1
1231 3
1234 1
1235 1
1244 1
1245 19
1248 1
1250 18
1252 1
1253 1
1255 2
1258 1
1260 3
1261 20
1265 1
1266 1
1270 1
1273 2
1274 2
1286 1
1288 1
1289 1
1290 2
1291 1
1292 1
1293 2
1294 2
1297 1
1298 19
1299 1
1300 2
1304 1
1305 2
1311 1
1313 17
1314 1
1315 1
1316 1
1317 23
1318 1
1320 1
1325 3
1329 18
1331 1
1333 1
1335 1
1338 1
1339 11
1340 2
1341 1
1344 11
1345 17
1346 18
1347 17
1348 7
1349 20
1350 17
1351 1
1355 18
1356 14
1357 18
1358 1
1359 12
1360 17
1361 15
1364 19
1365 14
1366 13
1367 22
1368 8
1369 19
1370 8
1371 9
1372 31
1374 21
1375 18
1377 16
1378 4
1379 9
1381 17
1382 15
1384 15
1386 1
1387 17
1388 1
1390 1
1391 16
1393 11
1394 16
1395 7
1396 17
1397 11
1398 15
1399 17
1400 1
1401 1
1402 2
1403 2
1404 18
1405 15
1406 16
1408 9
1409 9
1410 15
1412 17
1413 9
1415 21
1416 11
1417 16
1418 13
1419 11
1420 15
1421 16
1422 21
1423 8
1424 5
1425 16
1426 19
1428 15
1429 15
1430 2
1431 1
1432 17
1433 11
1434 15
1436 16
1437 2
1438 14
1440 18
1441 19
1442 1
1443 15
1444 12
1445 12
1446 17
1447 3
1448 19
1450 16
1451 16
1452 16
1454 20
1455 24
1456 12
1457 1
1458 9
1459 18
1460 16
1461 15
1462 12
1463 2
1464 17
1465 10
1467 14
1468 1
1469 20
1470 11
1471 11
1472 10
1473 17
1474 18
1475 9
1476 11
1477 13
1478 18
1483 17
1484 18
1485 18
1486 2
1487 20
1488 21
1489 19
1492 13
1493 18
1494 17
1495 4
1496 16
1497 1
1502 19
1506 11
1507 13
1508 19
1509 16
1510 19
1511 36
1512 26
1513 20
1515 18
1516 18
1517 2
1518 18
1519 5
1520 16
1521 12
1522 18
1523 9
1524 16
1525 15
1526 17
1527 7
1528 15
1531 37
1532 15
1533 13
1534 20
1535 19
1536 15
1537 1
1539 16
1540 2
1541 7
1543 17
1546 11
1547 16
1549 1
1550 14
1551 8
1554 13
1555 18
1556 14
1558 19
1559 2
1561 2
1566 21
1567 1
1568 20
1569 17
1572 1
1573 18
1574 17
1575 38
1576 17
1579 2
1580 20
1581 34
1582 10
1583 19
1584 18
1585 5
1586 19
1587 13
1588 17
1589 15
1590 9
1591 16
1592 1
1595 18
1596 20
1597 10
1598 13
1600 18
1601 18
1602 9
1603 14
1604 26
1607 9
1608 18
1609 7
1610 13
1611 18
1612 1
1613 16
1614 14
1615 17
1618 19
1619 32
1620 10
1621 8
1622 16
1623 17
1624 9
1625 17
1628 18
1629 19
1630 8
1631 1
1634 17
1636 16
1637 19
1638 1
1639 25
1640 11
1641 19
1643 11
1644 17
1645 15
1646 13
1647 18
1648 5
1649 15
1653 12
1656 12
1657 14
1658 9
1659 12
1660 16
1661 15
1662 18
1663 18
1664 1
1668 1
1673 20
1676 2
1683 1
1684 2
1685 2
1686 18
1690 3
1691 1
1695 1
1697 1
1699 1
1701 1
1702 2
1703 1
1706 2
1707 2
1708 3
1709 36
1714 4
1715 1
1722 1
1735 1
1740 2
1744 2
1746 1
1749 1
1751 1
1754 18
1755 1
1760 2
1761 1
1766 1
1767 2
1769 1
1770 1
1771 1
1772 4
1774 1
1775 2
1780 18
1785 2
1787 20
1788 18
1789 1
1790 1
1796 3
1803 18
1805 1
1806 2
1807 5
1808 1
1810 1
1817 5
1818 1
1819 2
1820 1
1822 2
1823 1
1824 1
1830 2
1836 16
1840 3
1841 1
1842 24
1843 3
1854 2
1863 1
1866 2
1867 1
1869 2
1870 2
1876 1
1884 1
1885 1
1888 1
1889 1
1892 18
1893 1
1895 1
1896 18
1906 2
1908 2
1909 2
1914 18
1915 1
1920 9
1921 17
1922 18
1923 17
1924 18
1925 17
1926 19
1927 17
1928 21
1929 19
1930 40
1931 20
1932 20
1933 20
1934 20
1935 20
1936 21
1937 20
1938 20
1939 19
1940 19
1941 20
1942 20
1943 20
1944 22
1945 20
1946 20
1947 22
1948 20
1949 20
1950 21
1951 20
1952 18
1953 20
1954 40
1955 20
1956 20
1957 21
1958 21
1959 21
1960 19
1961 20
1962 21
1963 21
1964 21
1965 36
1966 21
1967 22
1968 20
1969 20
1970 20
1971 21
1972 37
1973 40
1974 20
1975 20
1976 20
1977 19
1978 20
1979 20
1980 20
1981 19
1982 20
1983 20
1985 1
1989 2
1993 2
1995 1
2008 1
2009 1
2014 1
2015 3
2019 1
2020 2
2022 1
2023 1
2026 1
2028 1
2033 20
2038 20
2041 1
2042 1
2043 1
2044 1
2057 3
2061 1
2062 1
2066 16
2069 2
2073 2
2074 2
2075 1
2077 2
2079 3
2080 1
2088 1
2090 18
2098 23
2099 4
2100 2
2101 3
2102 2
2103 2
2104 2
2105 9
2106 8
2107 8
2108 8
2109 9
2110 8
2111 8
2112 20
2113 9
2114 7
2115 21
2116 21
2117 15
2118 20
2119 18
2120 19
2121 11
2122 20
2123 20
2124 21
2125 20
2126 20
2127 19
2128 20
2129 19
2130 18
2131 12
2132 18
2133 22
2134 17
2135 20
2136 19
2137 20
2138 32
2139 18
2140 9
2141 19
2142 11
2143 20
2144 18
2145 16
2146 18
2147 13
2148 12
2149 20
2150 19
2151 10
2152 13
2153 11
2154 23
2155 8
2156 17
2157 14
2158 8
2159 14
2160 18
2161 18
2162 20
2163 18
2164 17
2165 10
2166 1
2167 14
2168 5
2169 3
2170 15
2171 9
2172 20
2173 14
2174 9
2175 30
2176 12
2177 6
2178 4
2179 14
2184 20
2185 21
2187 15
2188 10
2189 11
2190 5
2191 17
2192 17
2193 17
2194 10
2195 16
2196 10
2197 20
2198 15
2199 14
2200 1
2203 6
2208 10
2209 18
2212 6
2213 12
2216 7
2217 17
2218 17
2220 11
2221 13
2230 1
2236 36
2237 1
2238 2
2240 16
2241 15
2242 17
2243 14
2244 6
2245 15
2246 15
2247 7
2248 16
2249 11
2250 15
2251 15
2252 18
2253 20
2254 1
2255 9
2256 16
2257 11
2258 7
2259 16
2260 11
2261 3
2262 13
2263 18
2264 20
2265 20
2267 7
2268 18
2270 8
2271 15
2272 18
2273 1
2274 14
2275 8
2276 15
2277 11
2278 4
2279 15
2280 12
2281 10
2282 15
2283 9
2284 12
2285 10
2289 6
2290 10
2291 12
2292 16
2293 4
2295 13
2296 4
2297 5
2298 13
2300 2
2301 12
2302 13
2303 9
2304 1
2326 1
2340 2
2356 1
2357 2
2361 17
2365 18
2368 13
2369 16
2370 14
2373 19
2374 14
2375 12
2377 13
2378 7
2379 19
2380 12
2382 8
2383 2
2384 20
2385 36
2386 16
2387 12
2389 15
2390 19
2391 21
2392 15
2393 19
2397 6
2398 8
2399 10
2400 3
2405 19
2406 18
2407 11
2408 17
2409 18
2411 7
2412 32
2413 24
2414 6
2415 6
2416 6
2417 9
2418 14
2421 12
2422 18
2423 15
2424 16
2425 3
2426 15
2427 15
2428 13
2429 15
2432 18
2434 14
2435 11
2436 18
2437 6
2438 10
2440 16
2441 20
2442 12
2443 12
2444 14
2445 13
2446 19
2449 16
2450 12
2451 33
2452 2
2455 7
2456 13
2459 21
2460 16
2462 17
2463 4
2464 17
2465 20
2466 1
2467 2
2468 13
2469 10
2470 12
2471 15
2472 17
2473 10
2475 19
2476 13
2477 14
2478 19
2479 21
2481 9
2482 11
2483 17
2484 18
2485 15
2486 6
2487 1
2488 20
2489 15
2490 17
2491 1
2492 16
2493 17
2494 15
2495 17
2496 17
2497 38
2498 17
2499 29
2500 18
2501 21
2502 35
2503 20
2504 35
2505 15
2506 13
2507 18
2508 39
2509 19
2510 13
2512 43
2513 19
2514 10
2515 12
2516 16
2517 33
2518 35
2519 28
2520 36
2521 16
2522 36
2523 33
2524 35
2525 20
2526 36
2527 11
2528 32
2529 34
2530 25
2531 16
2532 40
2533 29
2534 30
2535 32
2536 38
2537 41
2539 33
2540 24
2541 31
2542 40
2543 18
2544 39
2545 33
2546 37
2547 33
2548 39
2549 20
2550 19
2551 19
2552 19
2553 35
2554 36
2555 40
2556 27
2557 36
2558 41
2559 36
2560 19
2561 37
2562 4
2563 12
2564 15
2565 7
2566 4
2567 6
2568 8
2569 13
2570 4
2571 36
2572 8
2573 19
2576 2
2577 1
2582 18
2583 15
2584 13
2586 13
2588 6
2589 6
2590 14
2591 17
2592 17
2594 14
2595 16
2597 16
2598 16
2599 16
2604 18
2605 15
2606 19
2608 16
2609 11
2610 19
2611 2
2612 20
2613 20
2614 7
2615 18
2616 19
2618 12
2619 18
2620 14
2621 9
2622 14
2623 12
2626 13
2627 18
2628 13
2629 18
2631 17
2632 17
2633 9
2636 18
2637 15
2638 14
2639 14
2640 11
2641 14
2642 19
2643 12
2644 18
2646 15
2647 35
2648 15
2649 20
2650 21
2652 15
2653 17
2654 1
2655 18
2656 16
2659 8
2660 14
2661 18
2662 1
2663 18
2664 12
2665 1
2670 19
2671 19
2676 15
2677 9
2678 18
2679 18
2680 9
2681 7
2682 3
2683 9
2684 16
2685 14
2687 20
2688 39
2689 9
2690 16
2691 17
2692 20
2693 15
2695 38
2696 36
2697 40
2698 13
2699 13
2702 30
2703 30
2704 21
2705 18
2708 14
2709 17
2710 20
2711 32
2712 20
2713 19
2714 19
2715 3
2716 8
2717 16
2718 16
2719 11
2720 15
2721 37
2722 14
2723 32
2724 34
2725 12
2726 21
2727 13
2728 43
2729 25
2731 14
2732 38
2733 17
2734 31
2735 18
2737 17
2738 30
2739 26
2740 27
2741 11
2742 38
2743 28
2744 32
2745 36
2746 9
2747 35
2748 35
2749 22
2750 18
2751 27
2753 1
2760 1
2761 1
2763 20
2766 2
2767 18
2769 1
2771 2
2776 2
2781 1
2782 1
2790 20
2791 2
2792 1
2793 2
2795 3
2797 2
2803 2
2804 2
2810 1
2814 1
2815 2
2816 19
2818 6
2820 15
2821 8
2822 1
2825 15
2827 17
2829 15
2830 16
2831 13
2836 4
2838 17
2839 17
2840 2
2843 10
2844 8
2845 2
2846 3
2847 6
2848 8
2849 8
2851 5
2853 15
2854 10
2857 1
2859 2
2862 14
2864 6
2865 16
2868 20
2871 1
2873 19
2874 13
2876 15
2877 7
2878 7
2882 6
2883 3
2884 18
2885 1
2886 2
2887 2
2888 4
2889 12
2893 4
2894 14
2895 12
2896 12
2897 18
2898 3
2899 13
2900 22
2903 17
2904 15
2906 1
2908 1
2909 9
2910 14
2912 11
2913 15
2916 11
2917 9
2918 13
2920 13
2924 8
2925 11
2926 1
2927 5
2928 17
2929 6
2933 18
2934 12
2937 2
2938 16
2939 4
2940 9
2941 7
2942 9
2944 13
2945 10
2946 10
2947 11
2949 1
2952 17
2953 11
2954 17
2955 2
2956 10
2957 10
2958 22
2959 14
2960 16
2961 19
2962 1
2964 11
2965 15
2966 6
2967 7
2968 20
2969 1
2971 15
2972 15
2974 17
2975 4
2976 1
2979 11
2980 19
2981 19
2982 13
2983 10
2986 1
2987 16
2988 18
2989 7
2990 17
2991 1
2995 1
2996 14
2997 8
2999 13
3000 12
3002 21
3003 18
3004 17
3006 2
3007 19
3008 32
3010 19
3011 36
3012 22
3013 14
3015 14
3016 9
3017 13
3018 1
3019 20
3022 13
3023 10
3024 16
3025 19
3026 1
3028 19
3029 1
3030 17
3031 14
3035 11
3036 18
3037 10
3038 11
3039 11
3040 15
3044 18
3046 17
3049 12
3050 10
3051 14
3052 13
3053 1
3056 11
3057 19
3058 20
3059 15
3062 16
3063 18
3064 19
3065 9
3066 5
3067 8
3068 15
3069 16
3070 16
3073 1
3079 19
3125 1
3129 2
3135 18
3136 11
3137 1
3139 17
3140 37
3142 12
3143 9
3144 14
3146 17
3147 18
3148 12
3149 13
3151 10
3152 15
3153 8
3155 4
3156 6
3159 13
3160 2
3161 16
3162 9
3163 15
3164 1
3165 4
3166 2
3167 4
3168 9
3169 15
3170 15
3171 11
3172 11
3173 13
3174 8
3177 9
3178 15
3179 26
3180 14
3182 7
3183 15
3184 20
3185 15
3186 2
3187 16
3188 18
3189 16
3190 9
3194 15
3195 13
3196 20
3197 12
3199 6
3200 9
3202 8
3203 16
3206 1
3208 12
3209 7
3210 9
3211 2
3213 15
3215 19
3216 38
3217 19
3218 16
3219 22
3220 1
3221 18
3222 10
3223 17
3226 12
3228 13
3229 9
3230 16
3231 2
3232 13
3233 9
3234 20
3236 17
3237 6
3238 12
3239 18
3240 11
3242 14
3243 15
3245 3
3246 2
3248 1
3250 16
3251 15
3252 2
3253 19
3254 17
3256 13
3257 2
3258 15
3259 15
3260 39
3262 14
3263 14
3264 19
3265 14
3266 9
3267 13
3271 9
3272 17
3273 12
3274 13
3275 26
3276 17
3278 2
3280 18
3281 1
3282 13
3283 9
3284 11
3286 5
3287 12
3288 6
3289 14
3290 13
3292 19
3293 16
3294 16
3297 14
3298 18
3299 9
3300 16
3303 2
3305 5
3306 7
3308 17
3309 16
3310 8
3311 13
3312 18
3314 11
3315 13
3318 1
3319 20
3320 1
3325 6
3326 13
3328 14
3330 9
3331 15
3333 1
3334 9
3335 3
3336 15
3338 10
3339 17
3340 10
3341 14
3344 18
3345 18
3346 12
3347 17
3348 11
3351 10
3352 2
3353 2
3354 20
3355 18
3356 13
3357 10
3359 15
3360 37
3364 16
3365 21
3366 15
3367 19
3368 16
3369 1
3370 17
3371 14
3372 1
3374 1
3375 2
3376 14
3377 1
3378 15
3379 18
3382 1
3384 12
3385 12
3386 20
3387 10
3388 12
3389 14
3390 8
3391 12
3392 7
3393 15
3395 18
3396 4
3397 17
3398 19
3399 11
3400 8
3403 16
3404 16
3405 17
3406 7
3407 10
3408 19
3410 18
3413 14
3414 17
3415 14
3416 7
3417 18
3418 15
3419 7
3420 17
3421 18
3423 16
3425 9
3427 9
3428 6
3429 21
3431 13
3432 31
3433 16
3434 1
3436 16
3437 20
3438 6
3439 14
3440 18
3442 17
3443 6
3444 17
3445 15
3447 17
3451 9
3452 12
3453 14
3454 4
3455 7
3464 4
3468 2
3469 3
3470 1
3472 1
3476 2
3477 3
3478 18
3482 2
3489 3
3497 1
3502 20
3503 2
3510 2
3513 1
3515 1
3516 3
3517 18
3521 10
3522 14
3523 14
3524 14
3525 16
3526 12
3528 19
3529 7
3530 16
3531 16
3532 15
3533 14
3534 14
3535 24
3536 23
3537 20
3538 11
3539 12
3541 18
3542 15
3543 2
3544 1
3546 17
3547 18
3548 10
3549 15
3550 17
3551 9
3552 10
3553 15
3555 15
3556 18
3557 18
3558 1
3559 18
3560 25
3561 21
3563 17
3564 12
3565 7
3566 17
3567 10
3568 18
3569 15
3570 20
3571 3
3572 15
3574 18
3575 7
3576 12
3577 22
3578 14
3580 13
3581 17
3582 23
3583 18
3586 7
3587 15
3590 14
3591 14
3592 15
3595 8
3598 18
3599 11
3600 10
3601 9
3602 18
3603 36
3606 15
3609 2
3610 10
3612 4
3613 18
3614 13
3615 13
3616 16
3617 13
3618 11
3619 20
3620 10
3621 18
3622 20
3623 19
3624 15
3625 1
3628 18
3629 20
3630 18
3631 19
3632 16
3633 14
3635 14
3636 12
3637 19
3638 14
3639 20
3640 17
3641 8
3642 12
3643 17
3644 18
3645 8
3646 11
3647 18
3648 6
3651 6
3652 14
3653 19
3654 2
3655 14
3656 20
3658 13
3659 17
3660 20
3661 11
3662 15
3663 15
3664 18
3665 17
3666 19
3667 12
3668 19
3669 16
3670 14
3671 19
3672 13
3674 35
3675 12
3676 12
3677 20
3678 10
3680 15
3681 32
3682 16
3685 18
3686 11
3687 24
3688 6
3689 16
3690 15
3691 23
3692 18
3693 14
3694 15
3695 18
3696 13
3699 6
3700 17
3702 9
3703 21
3707 15
3708 16
3709 13
3710 20
3712 17
3713 14
3714 14
3715 13
3716 18
3717 21
3718 13
3720 2
3721 22
3722 15
3723 15
3724 5
3725 20
3727 2
3728 19
3729 15
3730 19
3732 15
3734 19
3738 22
3739 2
3740 17
3741 18
3743 12
3744 19
3745 16
3746 6
3747 16
3748 19
3749 13
3750 19
3751 22
3752 18
3753 23
3754 9
3756 14
3757 18
3758 12
3759 22
3760 15
3761 3
3765 12
3766 19
3767 15
3768 15
3769 12
3770 15
3771 11
3772 31
3774 15
3776 13
3777 4
3778 15
3780 1
3781 11
3782 4
3783 7
3784 7
3785 8
3786 10
3790 17
3791 17
3792 34
3793 11
3794 8
3795 7
3796 10
3797 14
3798 2
3799 17
3800 19
3801 22
3802 15
3803 20
3805 14
3806 13
3807 12
3809 15
3811 7
3812 11
3813 13
3814 18
3817 16
3818 9
3819 16
3820 12
3822 10
3823 12
3824 5
3825 14
3826 18
3827 8
3828 12
3829 5
3830 10
3831 12
3832 15
3833 13
3834 13
3836 19
3837 9
3838 18
3840 20
3847 2
3848 2
3853 2
3854 2
3858 2
3859 1
3864 17
3866 2
3892 2
3901 2
3907 1
3916 1
3919 2
3924 2
3927 20
3945 4
3953 2
3955 2
3957 2
3958 2
3966 2
3968 14
3969 1
3970 1
3971 20
3972 1
3973 9
3974 7
3975 10
3978 17
3979 14
3980 13
3981 12
3982 32
3983 16
3985 17
3986 13
3987 7
3988 5
3989 15
3991 10
3992 38
3993 15
3994 14
3995 13
3996 8
3997 9
3998 13
3999 3
4000 6
4001 17
4002 11
4003 4
4004 10
4005 14
4006 15
4008 7
4009 9
4010 14
4011 12
4013 1
4015 1
4016 20
4017 10
4018 11
4019 18
4020 14
4021 4
4022 11
4023 16
4024 3
4025 3
4026 9
4027 14
4028 14
4029 9
4031 17
4032 12
4033 6
4034 19
4036 15
4037 12
4038 12
4039 13
4040 6
4041 13
4042 1
4046 1
4047 11
4048 6
4049 1
4050 10
4052 16
4053 11
4054 18
4055 16
4056 4
4057 1
4058 19
4061 11
4062 16
4063 14
4064 16
4065 18
4066 2
4067 2
4068 38
4071 10
4072 18
4074 15
4075 16
4076 13
4077 8
4078 15
4081 19
4082 18
4083 17
4086 16
4087 14
4088 19
4089 17
4090 13
4092 17
4093 15
4094 15
=== PER_SET_WRITE_COUNTS_END ===

DRAM Statistics
 CHANNEL 0
 RQ ROW_BUFFER_HIT:      69289  ROW_BUFFER_MISS:      45063
 DBUS_CONGESTED:      20981
 WQ ROW_BUFFER_HIT:        159  ROW_BUFFER_MISS:        403  FULL:          0

 AVG_CONGESTED_CYCLE: 5

CPU 0 Branch Prediction Accuracy: 89.1088% MPKI: 27.2101 Average ROB Occupancy at Mispredict: 15.8646

Branch types
NOT_BRANCH: 7501276 75.0128%
BRANCH_DIRECT_JUMP: 263746 2.63746%
BRANCH_INDIRECT: 0 0%
BRANCH_CONDITIONAL: 1699800 16.998%
BRANCH_DIRECT_CALL: 252572 2.52572%
BRANCH_INDIRECT_CALL: 14836 0.14836%
BRANCH_RETURN: 267404 2.67404%
BRANCH_OTHER: 0 0%

